data_c00490.vasp
_audit_creation_method             Generated by GULP
_audit_author_name                 Salvador R. G. Balestra
_symmetry_space_group_name_H-M     'P 1             '
_symmetry_Int_Tables_number        1

loop_
_symmetry_equiv_pos_site_id
_symmetry_equiv_pos_as_xyz
_cell_length_a                       17.5538
_cell_length_b                        7.8420
_cell_length_c                       10.2896
_cell_angle_alpha                   90.5914
_cell_angle_beta                    89.2701
_cell_angle_gamma                   88.2004

loop_
_atom_site_label
_atom_site_type_symbol
_atom_site_fract_x
_atom_site_fract_y
_atom_site_fract_z
_atom_site_charge
  Ge     Ge        0.052090000000021    0.000000000000000    0.372269999999958  0.0000
  Ge     Ge        0.445483796628353    0.945009299513411    0.331132950367414  0.0000
  Ge     Ge        0.950687604999438    0.939719292066339    0.630660316674296  0.0000
  Ge     Ge        0.553114414229597    0.984612340076839    0.579875055907622  0.0000
  Ge     Ge        0.546340764053129    0.002617405771820    0.072911994003935  0.0000
  Ge     Ge        0.946450992455982    0.936698119283771    0.124384784810175  0.0000
  Ge     Ge        0.440382323535842    0.943225873474982    0.824108184968366  0.0000
  Ge     Ge        0.142461197317975    0.315754723847243    0.255067729020703  0.0000
  Ge     Ge        0.346244697206506    0.635241876365738    0.257137774994679  0.0000
  Ge     Ge        0.673950706083753    0.698412953427465    0.691805077055469  0.0000
  Ge     Ge        0.856774519395886    0.617909988138966    0.696021997234916  0.0000
  Ge     Ge        0.648718108639471    0.299893541017262    0.693699279964912  0.0000
  Ge     Ge        0.325034517157905    0.232390731581655    0.252989889478052  0.0000
  Ge     Ge        0.645252418723874    0.314016479867543    0.012124639890747  0.0000
  Ge     Ge        0.854644635457209    0.625871014425279    0.008766602013243  0.0000
  Ge     Ge        0.325301037042052    0.242867162817893    0.940496456743070  0.0000
  Ge     Ge        0.168249179134192    0.712743941350051    0.947993979011557  0.0000
  Ge     Ge        0.141337684828070    0.314350905420792    0.943053412505099  0.0000
  Ge     Ge        0.672857825647567    0.713825983227180    0.006215440062100  0.0000
  Ge     Ge        0.824495908172973    0.223532109312950    0.006230068737366  0.0000
  Si     Si        0.050502129987797    0.000686969271827    0.879515195168091  0.0000
  Si     Si        0.827527552354707    0.225690468368156    0.695549638716745  0.0000
  Si     Si        0.169103370095143    0.709872250431199    0.256949638358958  0.0000
  Si     Si        0.346727624247066    0.640760590683392    0.947260960241511  0.0000
  O1     O1        0.080721013628055    0.204642920889916    0.349260615137728  0.0000
  O1     O1        0.408765787453689    0.745767907717907    0.348264240492985  0.0000
  O3     O3        0.875057366206748    0.085352118454907    0.611836644304538  0.0000
  O1     O1        0.629374317684634    0.846784006860531    0.596250649397019  0.0000
  O1     O1        0.918570090304279    0.737557072870257    0.606634619520749  0.0000
  O1     O1        0.582114651106627    0.187083513795500    0.613340450213299  0.0000
  O3     O3        0.125672578039291    0.853081379465869    0.342715851188031  0.0000
  O1     O1        0.372235311537635    0.094059892350335    0.352973313944315  0.0000
  O1     O1        0.025817403062831    0.982864144709166    0.532977653334910  0.0000
  O1     O1        0.524111240112157    0.979300781313600    0.419924118994657  0.0000
  O1     O1        0.973271206129009    0.956487990602339    0.283132036554699  0.0000
  O1     O1        0.470749133641562    0.959936300338170    0.168642839388984  0.0000
  O3     O3        0.980472160350896    0.954915149062174    0.791333766620498  0.0000
  O1     O1        0.473156035836578    0.930005526641990    0.665991610731149  0.0000
  O1     O1        0.578245538953639    0.206146317615647    0.097227273256146  0.0000
  O1     O1        0.919619683673561    0.730770130002756    0.099856905032013  0.0000
  O1     O1        0.370837643754161    0.101714223673482    0.836478264139482  0.0000
  O3     O3        0.121770166518104    0.866676332890226    0.859215047315552  0.0000
  O3     O3        0.407292915285723    0.744741126170028    0.865701040546338  0.0000
  O3     O3        0.079875533670428    0.190040265765147    0.854274915109823  0.0000
  O1     O1        0.622059374287689    0.861311991382431    0.096701020265141  0.0000
  O1     O1        0.870230539865068    0.072237289650180    0.095378826147172  0.0000
  O1     O1        0.518472886683114    0.991109516702486    0.912860204940380  0.0000
  O3     O3        0.024339577502045    0.988698021603163    0.030165605716871  0.0000
  O3     O3        0.155128849408557    0.521426515361266    0.313157808758866  0.0000
  O1     O1        0.340484067832808    0.434445358872350    0.313690003681141  0.0000
  O3     O3        0.844630086797275    0.412793148477549    0.638610354921365  0.0000
  O1     O1        0.656981445832104    0.498838843832923    0.629251687455054  0.0000
  O1     O1        0.228771473669336    0.205645935927697    0.251717330167506  0.0000
  O3     O3        0.258599997826079    0.744219584679536    0.258955010726778  0.0000
  O3     O3        0.737673889249888    0.193944107422893    0.688924242366444  0.0000
  O1     O1        0.770154700329797    0.725840623133489    0.695632211706300  0.0000
  O1     O1        0.108121323173249    0.328357299623874    0.100643701084693  0.0000
  O3     O3        0.374551616295490    0.623790293257142    0.094807266637631  0.0000
  O3     O3        0.854257275763690    0.218928435363621    0.844777643468188  0.0000
  O1     O1        0.640245488245067    0.720822700262242    0.848845848199289  0.0000
  O1     O1        0.889178048173876    0.610848814753913    0.852065718740235  0.0000
  O1     O1        0.619744160193656    0.329404470319473    0.851504824491518  0.0000
  O3     O3        0.138978184750832    0.716005805279554    0.109564574082699  0.0000
  O1     O1        0.359150455591125    0.214301520247122    0.094803917213302  0.0000
  O1     O1        0.657594747681964    0.514371806165604    0.071013480811859  0.0000
  O1     O1        0.841427070030992    0.424975665784880    0.066447769282543  0.0000
  O3     O3        0.338250689605483    0.451453419280176    0.889556349631591  0.0000
  O1     O1        0.147368568079856    0.516196495881437    0.883398379589341  0.0000
  O1     O1        0.728885213578726    0.192305477646628    0.014364610365923  0.0000
  O1     O1        0.769230321191640    0.741438620227200    0.007712669083312  0.0000
  O1     O1        0.229267675181607    0.212434733431649    0.942586704310691  0.0000
  O3     O3        0.265193120830793    0.742224067315891    0.942145595245636  0.0000
