data_c00494.vasp
_audit_creation_method             Generated by GULP
_audit_author_name                 Salvador R. G. Balestra
_symmetry_space_group_name_H-M     'P 1             '
_symmetry_Int_Tables_number        1

loop_
_symmetry_equiv_pos_site_id
_symmetry_equiv_pos_as_xyz
_cell_length_a                       17.6511
_cell_length_b                        7.8254
_cell_length_c                       10.2123
_cell_angle_alpha                   91.0643
_cell_angle_beta                    90.0310
_cell_angle_gamma                   91.3194

loop_
_atom_site_label
_atom_site_type_symbol
_atom_site_fract_x
_atom_site_fract_y
_atom_site_fract_z
_atom_site_charge
  Ge     Ge        0.052090000000021    0.000000000000000    0.372269999999958  0.0000
  Ge     Ge        0.444719494741018    0.056804704162430    0.405235316644912  0.0000
  Ge     Ge        0.943323613969536    0.029106901045143    0.627080250382769  0.0000
  Ge     Ge        0.548948787568824    0.977737601695045    0.654284036240067  0.0000
  Ge     Ge        0.551362830090170    0.996123077718206    0.156735264509826  0.0000
  Ge     Ge        0.946793504634951    0.049165391034093    0.116342069542412  0.0000
  Ge     Ge        0.444891621300137    0.049267829134481    0.907320423799677  0.0000
  Ge     Ge        0.169747657674243    0.292641387140347    0.297808197509414  0.0000
  Ge     Ge        0.323189869611042    0.767589613714671    0.290200196361271  0.0000
  Ge     Ge        0.644094784212060    0.661800202280303    0.720445060519067  0.0000
  Ge     Ge        0.826029046482917    0.734369358083099    0.729631818382362  0.0000
  Ge     Ge        0.673395171569422    0.261482394714789    0.730808209849112  0.0000
  Ge     Ge        0.350783536670361    0.367690587577769    0.292018281343870  0.0000
  Ge     Ge        0.823534868249879    0.757883170449352    0.044880849911805  0.0000
  Ge     Ge        0.344607157703496    0.362232516497828    0.971505906928283  0.0000
  Ge     Ge        0.139921307448285    0.688150720660918    0.986467811197147  0.0000
  Ge     Ge        0.320038908284997    0.764091202663614    0.972576694884630  0.0000
  Ge     Ge        0.163931658024534    0.281496954357731    0.980488372724402  0.0000
  Ge     Ge        0.642529858531093    0.676734716859998    0.036622617432341  0.0000
  Ge     Ge        0.843932907856194    0.356888883405658    0.053938044523346  0.0000
  Si     Si        0.048188390356567    0.992332918836411    0.869504293025130  0.0000
  Si     Si        0.848894570968574    0.339469316517096    0.740550218786094  0.0000
  Si     Si        0.146710366864993    0.688018117242971    0.296921242698884  0.0000
  Si     Si        0.668835253595118    0.278536009603327    0.042951387664872  0.0000
  O1     O1        0.120657952372170    0.156843242089021    0.397632978629880  0.0000
  O1     O1        0.366599399368917    0.926349244592162    0.380180356240264  0.0000
  O3     O3        0.912046065713027    0.231173528033836    0.666632073615473  0.0000
  O1     O1        0.580550747265522    0.774215010730192    0.629475680584124  0.0000
  O1     O1        0.874349829491513    0.873134322570508    0.631051580832797  0.0000
  O1     O1        0.627111312562166    0.112184609190136    0.636829744179906  0.0000
  O3     O3        0.090223299627465    0.798234310391273    0.385733190202299  0.0000
  O1     O1        0.418859091990088    0.262369868464732    0.376517657981649  0.0000
  O1     O1        0.974954236778809    0.030671402822584    0.467886127831735  0.0000
  O1     O1        0.472160249277385    0.033393726722828    0.566077999657607  0.0000
  O1     O1        0.022571181657871    0.014476154689741    0.211464196579982  0.0000
  O1     O1        0.523975711083470    0.002676782597880    0.318208650829687  0.0000
  O3     O3        0.022643509979270    0.983214782030491    0.718774376503465  0.0000
  O1     O1        0.522122720402851    0.003098718771984    0.816638554388394  0.0000
  O3     O3        0.624247317933534    0.142996644070698    0.130531397940788  0.0000
  O1     O1        0.873825737197590    0.903406769083884    0.137822319340398  0.0000
  O1     O1        0.408914723511297    0.248567385004459    0.882329671915259  0.0000
  O3     O3        0.070606291899580    0.802317380299328    0.911825740680865  0.0000
  O1     O1        0.371168544134040    0.903773747908279    0.880463821724963  0.0000
  O3     O3        0.118236934908246    0.125560124055343    0.886573985473438  0.0000
  O1     O1        0.579038786042082    0.789760161199649    0.127192277338513  0.0000
  O1     O1        0.908247510769153    0.247904491408318    0.140945500773173  0.0000
  O1     O1        0.472344040498340    0.043988846025833    0.069752771153368  0.0000
  O3     O3        0.976251608673543    0.050473008089066    0.953702779274806  0.0000
  O3     O3        0.158822222665854    0.502468994459356    0.354999828834373  0.0000
  O1     O1        0.342912934667927    0.571854870093611    0.354091453240794  0.0000
  O3     O3        0.838823382703392    0.523763658285143    0.676714391715863  0.0000
  O1     O1        0.653398079066928    0.457018299060124    0.665327195623744  0.0000
  O1     O1        0.265081416122761    0.257539246685436    0.300422254978303  0.0000
  O3     O3        0.226119788244748    0.793889517369569    0.288272977966709  0.0000
  O3     O3        0.769884215292810    0.230785257832904    0.730547711192961  0.0000
  O1     O1        0.730579867318345    0.768383569660577    0.722344400396042  0.0000
  O1     O1        0.135484405164847    0.267241687813793    0.140740934088753  0.0000
  O1     O1        0.353647006880718    0.777524511341240    0.131049023713500  0.0000
  O3     O3        0.870613596548436    0.374699352649124    0.890986208925688  0.0000
  O1     O1        0.610687879459773    0.660718054699216    0.878912345179002  0.0000
  O1     O1        0.857212877992730    0.769117946758923    0.886823548836316  0.0000
  O3     O3        0.641980843818656    0.260363542746038    0.892223333667647  0.0000
  O3     O3        0.115373432679990    0.663625943421743    0.149315688680306  0.0000
  O1     O1        0.375814270145668    0.384934470576152    0.130755176292312  0.0000
  O3     O3        0.653992021917692    0.471614684781610    0.094199225141853  0.0000
  O1     O1        0.836846869305998    0.559984518784402    0.112314468717768  0.0000
  O1     O1        0.332158415704435    0.560056119300473    0.909666434899989  0.0000
  O1     O1        0.146349827046329    0.483835358544277    0.924109296111184  0.0000
  O3     O3        0.757892397293426    0.244655035833724    0.053497586315131  0.0000
  O1     O1        0.727816000887027    0.787528623589962    0.041640966977847  0.0000
  O1     O1        0.259467873263379    0.249466031167447    0.974139515998495  0.0000
  O1     O1        0.224422473809810    0.798804536603342    0.971746737577553  0.0000
