data_c00404.vasp
_audit_creation_method             Generated by GULP
_audit_author_name                 Salvador R. G. Balestra
_symmetry_space_group_name_H-M     'P 1             '
_symmetry_Int_Tables_number        1

loop_
_symmetry_equiv_pos_site_id
_symmetry_equiv_pos_as_xyz
_cell_length_a                       17.6056
_cell_length_b                        7.8286
_cell_length_c                       10.2626
_cell_angle_alpha                   89.2219
_cell_angle_beta                    90.4518
_cell_angle_gamma                   88.1097

loop_
_atom_site_label
_atom_site_type_symbol
_atom_site_fract_x
_atom_site_fract_y
_atom_site_fract_z
_atom_site_charge
  Ge     Ge        0.052090000000021    0.000000000000000    0.372269999999958  0.0000
  Ge     Ge        0.449126131543156    0.951535762544944    0.361044636327132  0.0000
  Ge     Ge        0.946953538711655    0.959367963670793    0.625297376618307  0.0000
  Ge     Ge        0.551044000790607    0.028362059535951    0.611852313708234  0.0000
  Ge     Ge        0.546738930013132    0.014904205683897    0.102686144833195  0.0000
  Ge     Ge        0.955808504509168    0.947718107088704    0.105853024616973  0.0000
  Ge     Ge        0.438361865594419    0.967178657143695    0.851314812033634  0.0000
  Ge     Ge        0.145090849478632    0.312709157299221    0.287722758991061  0.0000
  Ge     Ge        0.353508273302387    0.642043270570245    0.283690903303525  0.0000
  Ge     Ge        0.828398591756025    0.259688001525662    0.724945309871215  0.0000
  Ge     Ge        0.674209034046334    0.736510398079289    0.729059312475364  0.0000
  Ge     Ge        0.646290062097419    0.337201862553420    0.721050211702112  0.0000
  Ge     Ge        0.173214953709974    0.717151343243129    0.285474543267081  0.0000
  Ge     Ge        0.325682659218417    0.236787085478427    0.280306997509630  0.0000
  Ge     Ge        0.648696799958594    0.324983509123310    0.040317036059384  0.0000
  Ge     Ge        0.852530665497213    0.638214369718739    0.047962563996476  0.0000
  Ge     Ge        0.347649211114756    0.648423978506013    0.969410974841399  0.0000
  Ge     Ge        0.144820891472761    0.318755816582000    0.975509273660035  0.0000
  Ge     Ge        0.674342911594047    0.727017191854001    0.047870066298546  0.0000
  Ge     Ge        0.828747820164982    0.236048652376877    0.040596527306522  0.0000
  Si     Si        0.057738977649647    0.006788632147196    0.859155269601776  0.0000
  Si     Si        0.850438973101882    0.652689859711860    0.734601667777705  0.0000
  Si     Si        0.326250236272666    0.253961376307847    0.973194912642540  0.0000
  Si     Si        0.166678822365398    0.712856109698739    0.976113988407568  0.0000
  O1     O1        0.084928329100479    0.202808476080883    0.386888962471852  0.0000
  O1     O1        0.417026976865712    0.748110627430824    0.378775739452630  0.0000
  O1     O1        0.879381985477306    0.119720176766008    0.630051284830862  0.0000
  O1     O1        0.629399180204238    0.899258306973379    0.645064634328744  0.0000
  O3     O3        0.914255626899695    0.760176617387965    0.663828453055727  0.0000
  O1     O1        0.577739724134583    0.234025324169208    0.635446734230709  0.0000
  O1     O1        0.126400464626926    0.852512594903319    0.387521133719889  0.0000
  O1     O1        0.374768132061383    0.097168218255129    0.380446587084562  0.0000
  O1     O1        0.976302033842074    0.955090790005484    0.465281458077429  0.0000
  O1     O1        0.527049305635410    0.995984441715753    0.450811958237574  0.0000
  O1     O1        0.028035147143722    0.981663455734119    0.208700130349616  0.0000
  O1     O1        0.471564592371774    0.976209826321842    0.197855749028009  0.0000
  O3     O3        0.030460964348751    0.996252760159498    0.710315665662106  0.0000
  O1     O1        0.469124244879364    0.981212934433260    0.693099230931729  0.0000
  O1     O1        0.582562644685991    0.214359947181143    0.124704577087792  0.0000
  O1     O1        0.923421942662114    0.743083858189416    0.122808687090484  0.0000
  O3     O3        0.364703111652623    0.111885913254589    0.882572200389593  0.0000
  O2     O2        0.123864287321357    0.864630645574765    0.893720596699094  0.0000
  O1     O1        0.405039899887804    0.764418690450033    0.872132684982197  0.0000
  O3     O3        0.088781804354042    0.195859371892765    0.878860478315339  0.0000
  O1     O1        0.620083518920571    0.867245422333891    0.134434704298227  0.0000
  O1     O1        0.879775549642488    0.088051330480998    0.130607779326184  0.0000
  O1     O1        0.517970358250003    0.002080093521370    0.941831977322786  0.0000
  O3     O3        0.983823099712195    0.975502804952721    0.945047380095509  0.0000
  O1     O1        0.159506342699429    0.512102987235936    0.343439092007926  0.0000
  O1     O1        0.341071493905228    0.439551428374589    0.338156428193397  0.0000
  O3     O3        0.840872101608636    0.468915702048770    0.669816534469997  0.0000
  O1     O1        0.654072077662903    0.542565001471656    0.662673401767171  0.0000
  O1     O1        0.231010452851422    0.199136913844983    0.282559794188518  0.0000
  O1     O1        0.267858544125422    0.756262160967396    0.284952276313488  0.0000
  O1     O1        0.732688588594947    0.227949638112735    0.712993075847738  0.0000
  O3     O3        0.771645041179851    0.763570005641102    0.726656019480974  0.0000
  O1     O1        0.109673231660873    0.319257804304908    0.129949316907631  0.0000
  O1     O1        0.384029077697969    0.645147954273861    0.124318307436603  0.0000
  O1     O1        0.859222963309618    0.226351603961053    0.881571746800565  0.0000
  O1     O1        0.644915409438398    0.740884514067418    0.887518280805367  0.0000
  O3     O3        0.872548260962491    0.614196435903018    0.883886285583425  0.0000
  O1     O1        0.619338733384916    0.349945809275839    0.880793841543298  0.0000
  O3     O3        0.139387658878437    0.721079925741134    0.125039315434862  0.0000
  O3     O3        0.358707237661627    0.234848333909401    0.120160335635330  0.0000
  O1     O1        0.661837997079457    0.520930603903413    0.105094678628332  0.0000
  O1     O1        0.842776738037649    0.435687664370087    0.106141384197695  0.0000
  O3     O3        0.344250057191545    0.440341615785878    0.915110680319493  0.0000
  O3     O3        0.146730994034639    0.528738400904200    0.918526904506767  0.0000
  O1     O1        0.732881077696193    0.204875593787517    0.040457208229974  0.0000
  O1     O1        0.769780050504048    0.760831061412877    0.059919504362435  0.0000
  O3     O3        0.236152715609109    0.232652073956344    0.979341461357071  0.0000
  O3     O3        0.256388596809761    0.738195221084852    0.970597541978097  0.0000
