data_c00495.vasp
_audit_creation_method             Generated by GULP
_audit_author_name                 Salvador R. G. Balestra
_symmetry_space_group_name_H-M     'P 1             '
_symmetry_Int_Tables_number        1

loop_
_symmetry_equiv_pos_site_id
_symmetry_equiv_pos_as_xyz
_cell_length_a                       17.6997
_cell_length_b                        7.8119
_cell_length_c                       10.1113
_cell_angle_alpha                   90.7770
_cell_angle_beta                    90.4296
_cell_angle_gamma                   90.9217

loop_
_atom_site_label
_atom_site_type_symbol
_atom_site_fract_x
_atom_site_fract_y
_atom_site_fract_z
_atom_site_charge
  Ge     Ge        0.052090000000021    0.000000000000000    0.372269999999958  0.0000
  Ge     Ge        0.439836559796623    0.052073770112877    0.359794645056788  0.0000
  Ge     Ge        0.940594664438921    0.035982226583652    0.622111038227008  0.0000
  Ge     Ge        0.548873634038194    0.987614153862082    0.607899336541774  0.0000
  Ge     Ge        0.544541801641080    0.989665188838806    0.109183041985468  0.0000
  Ge     Ge        0.948997676743176    0.053197215018064    0.113324539662296  0.0000
  Ge     Ge        0.440065391095860    0.042975384887778    0.855559976355995  0.0000
  Ge     Ge        0.168055433276932    0.291810654425393    0.297064179060021  0.0000
  Ge     Ge        0.321820875613698    0.757715080352689    0.292616658368778  0.0000
  Ge     Ge        0.641699994557737    0.672018576831301    0.722783730632295  0.0000
  Ge     Ge        0.822841615356523    0.743495955091168    0.723881070122841  0.0000
  Ge     Ge        0.670770017545184    0.270939052581903    0.726061312129037  0.0000
  Ge     Ge        0.669667033709669    0.274842018673112    0.047724745845892  0.0000
  Ge     Ge        0.823871997454007    0.766410551917358    0.043078443818812  0.0000
  Ge     Ge        0.344183366636906    0.354838913697768    0.978718256806602  0.0000
  Ge     Ge        0.139514371619802    0.686248509247840    0.983765404648469  0.0000
  Ge     Ge        0.319377047156771    0.760811519651050    0.972536911461303  0.0000
  Ge     Ge        0.164312247156143    0.278482053301533    0.975995588091053  0.0000
  Ge     Ge        0.646132029775392    0.679629723917709    0.046297408932586  0.0000
  Ge     Ge        0.846023972454284    0.361518633527877    0.052213684758356  0.0000
  Si     Si        0.047973399595040    0.992306232854960    0.863798657818764  0.0000
  Si     Si        0.846568895157642    0.348555698838135    0.735541511804362  0.0000
  Si     Si        0.145556025412034    0.686048832395714    0.298313263149980  0.0000
  Si     Si        0.343962313058475    0.364327935443625    0.295132287131032  0.0000
  O1     O1        0.121720492575903    0.153799706922672    0.398377755663930  0.0000
  O1     O1        0.370624046579937    0.900569682668982    0.390910682818020  0.0000
  O3     O3        0.909192067516713    0.238462983924635    0.660894870332038  0.0000
  O1     O1        0.573711967346548    0.780075752602151    0.637240184338259  0.0000
  O1     O1        0.871175007768089    0.882572209254129    0.624810685125904  0.0000
  O1     O1        0.628075126233977    0.112426372654423    0.634310006120224  0.0000
  O3     O3        0.089562778275526    0.797085830583107    0.387618640335528  0.0000
  O3     O3        0.403396362496188    0.255808052641824    0.378749808697192  0.0000
  O1     O1        0.973432757790591    0.036472163429677    0.461995322061187  0.0000
  O1     O1        0.520642512378136    0.015644140913654    0.445955537421942  0.0000
  O1     O1        0.025297901925870    0.014870740434732    0.208056070517932  0.0000
  O1     O1        0.465243038413707    0.031462206127202    0.195706440852098  0.0000
  O3     O3        0.021030176516442    0.986583661860289    0.711972946487253  0.0000
  O1     O1        0.469879699378505    0.046330933201967    0.694209486302080  0.0000
  O1     O1        0.615020265659817    0.140444743254139    0.138803581613953  0.0000
  O1     O1        0.876404069157324    0.907967888926479    0.136355187378201  0.0000
  O1     O1        0.413677087666646    0.247235329623368    0.899718587735544  0.0000
  O3     O3        0.070406844808066    0.801194641123116    0.906312081973423  0.0000
  O1     O1        0.364820257321238    0.904146047777544    0.873706583443735  0.0000
  O3     O3        0.118349464414932    0.123442320855865    0.881457137759273  0.0000
  O1     O1        0.581872140097493    0.791218573173761    0.137095792483789  0.0000
  O1     O1        0.913890175507320    0.255846481550305    0.137069011212976  0.0000
  O1     O1        0.517950857005355    0.985236957175900    0.944278028665536  0.0000
  O3     O3        0.976505279996352    0.051592059711767    0.948292417601849  0.0000
  O3     O3        0.154873604313043    0.498943634974353    0.357225838999686  0.0000
  O3     O3        0.336656004680703    0.553816077083672    0.354505951804411  0.0000
  O3     O3        0.836320730864299    0.533246930571749    0.669969031158359  0.0000
  O1     O1        0.650369620473695    0.467011490061092    0.661246819577745  0.0000
  O3     O3        0.264466868042466    0.259585672798903    0.295632717278262  0.0000
  O3     O3        0.225512252492495    0.789210327534705    0.292677867419713  0.0000
  O3     O3        0.767704416572700    0.242096463957586    0.728928906288924  0.0000
  O1     O1        0.727576989503751    0.778453166369095    0.715220251282702  0.0000
  O1     O1        0.135666686847676    0.264929710818486    0.137543783566189  0.0000
  O1     O1        0.352233611487968    0.780967000405250    0.132890870078505  0.0000
  O3     O3        0.869553616370108    0.385396841792396    0.886779443365703  0.0000
  O1     O1        0.616011362936272    0.652873803074780    0.884978126047424  0.0000
  O1     O1        0.854880672520514    0.778415639579485    0.882343162302715  0.0000
  O1     O1        0.639158592627011    0.258318484278103    0.885814500277891  0.0000
  O3     O3        0.115247116714859    0.663176213975311    0.148349938338157  0.0000
  O3     O3        0.369451482521943    0.383443221050989    0.143596390167976  0.0000
  O1     O1        0.660190271089483    0.481516320642950    0.108421419672694  0.0000
  O1     O1        0.834799736718099    0.564885676557343    0.109363677855808  0.0000
  O1     O1        0.334383049898359    0.555419747748358    0.915543838918354  0.0000
  O1     O1        0.146284607541584    0.482091040129283    0.920542188810356  0.0000
  O1     O1        0.764628627168083    0.237153123133771    0.057583407196958  0.0000
  O1     O1        0.728576759842738    0.801778816019053    0.043327260553023  0.0000
  O1     O1        0.259663744860023    0.244084489247745    0.966534856228997  0.0000
  O1     O1        0.223808413403304    0.794676078936954    0.970506375075453  0.0000
