data_c00430.vasp
_audit_creation_method             Generated by GULP
_audit_author_name                 Salvador R. G. Balestra
_symmetry_space_group_name_H-M     'P 1             '
_symmetry_Int_Tables_number        1

loop_
_symmetry_equiv_pos_site_id
_symmetry_equiv_pos_as_xyz
_cell_length_a                       17.6275
_cell_length_b                        7.8255
_cell_length_c                       10.2237
_cell_angle_alpha                   89.6637
_cell_angle_beta                    89.6962
_cell_angle_gamma                   91.4845

loop_
_atom_site_label
_atom_site_type_symbol
_atom_site_fract_x
_atom_site_fract_y
_atom_site_fract_z
_atom_site_charge
  Ge     Ge        0.052090000000021    0.000000000000000    0.372269999999958  0.0000
  Ge     Ge        0.445672116764307    0.062671650415341    0.364057732704968  0.0000
  Ge     Ge        0.947663562070422    0.047623693819148    0.631318948248793  0.0000
  Ge     Ge        0.554511207502927    0.006019187234085    0.608724103547532  0.0000
  Ge     Ge        0.543095782507155    0.997435002677892    0.104784099758812  0.0000
  Ge     Ge        0.949022355013121    0.059505313039614    0.116036049510343  0.0000
  Ge     Ge        0.440425111503549    0.067885255043104    0.850008169084823  0.0000
  Ge     Ge        0.167864210305858    0.297510806957755    0.291669116152141  0.0000
  Ge     Ge        0.323578235976085    0.778189710148372    0.290907000857582  0.0000
  Ge     Ge        0.857522702341836    0.371418913825089    0.737129394927781  0.0000
  Ge     Ge        0.648688620565898    0.691123705524437    0.725830962365980  0.0000
  Ge     Ge        0.675444472904019    0.291712235205915    0.724424903501551  0.0000
  Ge     Ge        0.348705191502397    0.375209528695041    0.288968467240531  0.0000
  Ge     Ge        0.669896328670569    0.284093603669975    0.040996181993024  0.0000
  Ge     Ge        0.822499244276868    0.771155101969037    0.047277953387233  0.0000
  Ge     Ge        0.347439345027646    0.380099371372579    0.970022769657810  0.0000
  Ge     Ge        0.320650970392993    0.781987926896559    0.971151864865427  0.0000
  Ge     Ge        0.162936636770346    0.309110809680877    0.977253125885469  0.0000
  Ge     Ge        0.644319689727293    0.687019014680704    0.046272074926834  0.0000
  Ge     Ge        0.849490171095563    0.369611783807040    0.052758848290659  0.0000
  Si     Si        0.052894542626198    0.011666557397464    0.871613102733007  0.0000
  Si     Si        0.826885701189017    0.764113651619165    0.735211059800892  0.0000
  Si     Si        0.148846748427815    0.695384605674178    0.295112241362586  0.0000
  Si     Si        0.143175327890935    0.706225879732674    0.988255294638648  0.0000
  O1     O1        0.119743219514801    0.159731879793984    0.394781408153346  0.0000
  O1     O1        0.371635225182143    0.917465870489002    0.389356627294965  0.0000
  O1     O1        0.922427745467234    0.255876451758516    0.651190730520637  0.0000
  O1     O1        0.583090101485309    0.802393233410634    0.639887896009757  0.0000
  O3     O3        0.870302582691769    0.912140245626116    0.654532024065851  0.0000
  O1     O1        0.630893322576658    0.140809205691695    0.629981384646217  0.0000
  O3     O3        0.088816808043993    0.796115285601424    0.380606147106318  0.0000
  O1     O1        0.411910570482757    0.264376504521765    0.381991941438856  0.0000
  O1     O1        0.975838149444393    0.020858213512548    0.471585768515546  0.0000
  O1     O1        0.525805342791478    0.020112758125806    0.447605176833072  0.0000
  O1     O1        0.023567594267003    0.020520136304134    0.212258736049095  0.0000
  O1     O1        0.467295475351183    0.040896366931482    0.199150664727123  0.0000
  O3     O3        0.026667380907433    0.994484782811405    0.722256324446506  0.0000
  O1     O1        0.473279491216657    0.058989724073820    0.691697624606488  0.0000
  O1     O1        0.617264987184110    0.140961326333616    0.131019135522385  0.0000
  O1     O1        0.875611952632529    0.911823830479093    0.135455987625462  0.0000
  O1     O1        0.412782293034917    0.272867770095002    0.880590138431610  0.0000
  O2     O2        0.080606189881171    0.826921146488952    0.923833642569267  0.0000
  O1     O1        0.361587024949122    0.937110320019121    0.875221108703507  0.0000
  O3     O3        0.117342260261796    0.160285579299911    0.879545131683137  0.0000
  O1     O1        0.576359282338668    0.794737426277083    0.129589823075656  0.0000
  O1     O1        0.911762377990558    0.256937518267280    0.144849270612199  0.0000
  O1     O1        0.515338645180275    0.007187197300226    0.943161364893867  0.0000
  O3     O3        0.978793592352534    0.060404555848784    0.953255261571719  0.0000
  O3     O3        0.158731174235539    0.505987800054915    0.349249626797441  0.0000
  O1     O1        0.340212307541815    0.575663643010694    0.349065783609335  0.0000
  O3     O3        0.845832280000619    0.577969641538910    0.677729441662993  0.0000
  O1     O1        0.657066959953400    0.491233090218258    0.661826871141593  0.0000
  O1     O1        0.263142909614512    0.261856017225167    0.288778044899888  0.0000
  O3     O3        0.226735256058996    0.807690866324292    0.297894154266722  0.0000
  O1     O1        0.771218030581152    0.264484362751260    0.727285908780032  0.0000
  O3     O3        0.737184165850063    0.794605771734689    0.726393070024930  0.0000
  O1     O1        0.133007867152722    0.277234708656133    0.135258600800986  0.0000
  O1     O1        0.352001988379795    0.797615147362164    0.129705277542241  0.0000
  O1     O1        0.885259127417835    0.385117138401497    0.895936571928540  0.0000
  O1     O1        0.618708644305940    0.670540103953056    0.884463419245245  0.0000
  O3     O3        0.852790644993873    0.771550407936053    0.885666377872798  0.0000
  O1     O1        0.639687531420371    0.274511298368761    0.880934847247548  0.0000
  O2     O2        0.124421337031585    0.676668118596718    0.142304081033778  0.0000
  O1     O1        0.378378889543231    0.390134277178606    0.128774636906770  0.0000
  O1     O1        0.656079228966344    0.485761050098904    0.104754311079899  0.0000
  O1     O1        0.834308958937116    0.568411350650411    0.111516429978747  0.0000
  O1     O1        0.341430214450265    0.584601918243042    0.910668900928236  0.0000
  O3     O3        0.144047559526100    0.518265850602357    0.926504647678150  0.0000
  O1     O1        0.765322610775963    0.251185122364098    0.044366940426758  0.0000
  O1     O1        0.727576960170486    0.808769308420637    0.053591305820119  0.0000
  O1     O1        0.258694910810638    0.282080036166536    0.966625428048455  0.0000
  O3     O3        0.223263351621546    0.804156963203317    0.970803749566760  0.0000
