data_c00456.vasp
_audit_creation_method             Generated by GULP
_audit_author_name                 Salvador R. G. Balestra
_symmetry_space_group_name_H-M     'P 1             '
_symmetry_Int_Tables_number        1

loop_
_symmetry_equiv_pos_site_id
_symmetry_equiv_pos_as_xyz
_cell_length_a                       17.6101
_cell_length_b                        7.8156
_cell_length_c                       10.2761
_cell_angle_alpha                   89.6751
_cell_angle_beta                    90.0810
_cell_angle_gamma                   91.3094

loop_
_atom_site_label
_atom_site_type_symbol
_atom_site_fract_x
_atom_site_fract_y
_atom_site_fract_z
_atom_site_charge
  Ge     Ge        0.052090000000021    0.000000000000000    0.372269999999958  0.0000
  Ge     Ge        0.443023417219398    0.048762342468684    0.332515638733593  0.0000
  Ge     Ge        0.945913800504740    0.048363054753661    0.623255750628145  0.0000
  Ge     Ge        0.547749603351190    0.994354418653804    0.583594325041220  0.0000
  Ge     Ge        0.540890529237984    0.984164635525564    0.072482603371335  0.0000
  Ge     Ge        0.941670443611463    0.048528664727244    0.125464357110969  0.0000
  Ge     Ge        0.433826241418569    0.042833104110231    0.822042680875005  0.0000
  Ge     Ge        0.166718660097384    0.296667799471477    0.261624225924020  0.0000
  Ge     Ge        0.319435560513715    0.769287863246249    0.250720174786308  0.0000
  Ge     Ge        0.847762136126535    0.365591217497302    0.687159884160649  0.0000
  Ge     Ge        0.820256147437425    0.766185100125195    0.695261951943142  0.0000
  Ge     Ge        0.666351556451022    0.290775974571504    0.690894496303553  0.0000
  Ge     Ge        0.349385570979002    0.366282371683335    0.257719854477857  0.0000
  Ge     Ge        0.667094827646170    0.269042949062375    0.005642246391661  0.0000
  Ge     Ge        0.819682856674785    0.763226070519159    0.012450629952873  0.0000
  Ge     Ge        0.342185381394827    0.356735597285426    0.945093941095531  0.0000
  Ge     Ge        0.141547475575725    0.686631275992832    0.941924871446619  0.0000
  Ge     Ge        0.158978639151109    0.283657325741677    0.949840070207361  0.0000
  Ge     Ge        0.641842344200999    0.673432918819609    0.010947752967419  0.0000
  Ge     Ge        0.846667878546980    0.357830595211560    0.004978422391782  0.0000
  Si     Si        0.043103361174178    0.992839044880172    0.877822229967828  0.0000
  Si     Si        0.643531426868988    0.687155997898622    0.699764540331545  0.0000
  Si     Si        0.143203879909550    0.692469242799110    0.251725542379007  0.0000
  Si     Si        0.318415372314762    0.757476277115126    0.941469274437992  0.0000
  O1     O1        0.121905962428372    0.155049389644331    0.364420255003154  0.0000
  O1     O1        0.364297821968175    0.913965729524182    0.347527610381656  0.0000
  O1     O1        0.914055460287860    0.252506163268476    0.602721156897987  0.0000
  O3     O3        0.581061438870690    0.794647726259297    0.623227892619630  0.0000
  O1     O1        0.867857247707430    0.914485630003262    0.602782740248627  0.0000
  O1     O1        0.615529513224220    0.153479769980129    0.593541937405294  0.0000
  O3     O3        0.081973900371458    0.798383550533971    0.330495692075417  0.0000
  O1     O1        0.412228598438623    0.253816171939658    0.351595469855390  0.0000
  O1     O1        0.021431959963724    0.995441150062300    0.531474232552708  0.0000
  O1     O1        0.519233649714433    0.992884311333353    0.422163599709242  0.0000
  O1     O1        0.973261947115705    0.049224216669731    0.283023241976321  0.0000
  O1     O1        0.466745629767479    0.025009655192635    0.169937965938723  0.0000
  O3     O3        0.972328744769505    0.026118258124128    0.786655014845076  0.0000
  O1     O1        0.464586660875293    0.034518640807530    0.663677812172963  0.0000
  O1     O1        0.616381555863163    0.125604137842208    0.097426818704346  0.0000
  O1     O1        0.866823966405303    0.906197298664712    0.109846320347524  0.0000
  O1     O1        0.401224163415622    0.245884505034450    0.846742743260944  0.0000
  O3     O3        0.078586108344062    0.806876294357118    0.854209470405722  0.0000
  O3     O3        0.361844839800395    0.892646677339419    0.849850281167556  0.0000
  O3     O3        0.109073985235060    0.136918616932843    0.856810447962356  0.0000
  O1     O1        0.572955270090664    0.778870068602133    0.092226122776338  0.0000
  O1     O1        0.914211458897136    0.252811758356683    0.091009816344321  0.0000
  O1     O1        0.512772064100834    0.003662391186558    0.912428423945313  0.0000
  O3     O3        0.016921796208532    0.992829963801966    0.028078238254549  0.0000
  O3     O3        0.154950801859614    0.506271488166240    0.314342127829082  0.0000
  O1     O1        0.340845831849338    0.570079745994044    0.311388335084829  0.0000
  O1     O1        0.838306855234422    0.568850350441825    0.629404587131170  0.0000
  O3     O3        0.654402421681334    0.501121202642710    0.637649208486482  0.0000
  O1     O1        0.261961681238500    0.261657123445888    0.258375766676329  0.0000
  O3     O3        0.222596126523609    0.799887315381970    0.253445464250920  0.0000
  O1     O1        0.761789821805615    0.254784938203549    0.683027767067575  0.0000
  O3     O3        0.722817568399200    0.795189858928937    0.695393738062169  0.0000
  O1     O1        0.128813448312396    0.268645928414805    0.108896669428110  0.0000
  O3     O3        0.348913174711855    0.775814425541744    0.088967307825171  0.0000
  O1     O1        0.875670373963127    0.382591277405830    0.846903920645975  0.0000
  O3     O3        0.617612956927185    0.655072883965064    0.847310858834772  0.0000
  O1     O1        0.850382159561712    0.780306990529023    0.854169067579716  0.0000
  O1     O1        0.635077354817184    0.259307624390051    0.846952196242959  0.0000
  O3     O3        0.115989825693913    0.664160991284749    0.104117696623905  0.0000
  O1     O1        0.380047242985720    0.364278955268802    0.098429610318766  0.0000
  O1     O1        0.653102100525427    0.471450955845648    0.068213114507009  0.0000
  O1     O1        0.832722396162670    0.556807962259391    0.067662301847198  0.0000
  O3     O3        0.330842481379738    0.565151920231747    0.890944280964937  0.0000
  O1     O1        0.143051972536707    0.483758419591305    0.883749577955611  0.0000
  O1     O1        0.763041786235247    0.237338691832617    0.006896556295433  0.0000
  O1     O1        0.723844307460308    0.796612113766486    0.018799028901809  0.0000
  O1     O1        0.254832399111298    0.253659283680721    0.948099613317077  0.0000
  O3     O3        0.228938314376990    0.791975274102025    0.937794564564833  0.0000
