data_c00425.vasp
_audit_creation_method             Generated by GULP
_audit_author_name                 Salvador R. G. Balestra
_symmetry_space_group_name_H-M     'P 1             '
_symmetry_Int_Tables_number        1

loop_
_symmetry_equiv_pos_site_id
_symmetry_equiv_pos_as_xyz
_cell_length_a                       17.6568
_cell_length_b                        7.8199
_cell_length_c                       10.2300
_cell_angle_alpha                   88.5002
_cell_angle_beta                    90.7216
_cell_angle_gamma                   88.7426

loop_
_atom_site_label
_atom_site_type_symbol
_atom_site_fract_x
_atom_site_fract_y
_atom_site_fract_z
_atom_site_charge
  Ge     Ge        0.052090000000021    0.000000000000000    0.372269999999958  0.0000
  Ge     Ge        0.445062044105469    0.961455405129460    0.393765080958738  0.0000
  Ge     Ge        0.942805896154029    0.967781942960416    0.621553768370090  0.0000
  Ge     Ge        0.548098329055902    0.026024988965806    0.647460764013983  0.0000
  Ge     Ge        0.555789244354387    0.004587459211006    0.152664682852834  0.0000
  Ge     Ge        0.951073957134282    0.941866820974826    0.109886993485974  0.0000
  Ge     Ge        0.446624427172236    0.958274970459388    0.902933234950857  0.0000
  Ge     Ge        0.148866887170578    0.317008249686676    0.296131398671652  0.0000
  Ge     Ge        0.354333270672220    0.642947310757456    0.279735910775700  0.0000
  Ge     Ge        0.826471473320576    0.262676212661715    0.720170430379212  0.0000
  Ge     Ge        0.671379854177648    0.739995856651143    0.727707869314306  0.0000
  Ge     Ge        0.646652108095292    0.337152193364714    0.715709160586925  0.0000
  Ge     Ge        0.173071673177423    0.718020352527158    0.291663224194066  0.0000
  Ge     Ge        0.850419614242436    0.630356608074024    0.050600109687238  0.0000
  Ge     Ge        0.321061881395258    0.243365887661346    0.971236372831473  0.0000
  Ge     Ge        0.166347297725050    0.723227327220421    0.974396329826714  0.0000
  Ge     Ge        0.347379403535971    0.645232555067218    0.964025846487518  0.0000
  Ge     Ge        0.140831097698030    0.317176240162568    0.978582763236330  0.0000
  Ge     Ge        0.671689104333099    0.711066362127792    0.044689821737852  0.0000
  Ge     Ge        0.826362506004801    0.230472877320098    0.035685509662248  0.0000
  Si     Si        0.050422425495081    0.012362387282439    0.861608172611870  0.0000
  Si     Si        0.847319928775201    0.657751701694656    0.737047065713774  0.0000
  Si     Si        0.326252423471868    0.247344670008223    0.281389774221634  0.0000
  Si     Si        0.649730558070296    0.311760171705260    0.027547764222994  0.0000
  O1     O1        0.089261886724652    0.199006415704951    0.391235750486317  0.0000
  O1     O1        0.419228243070225    0.754711957327503    0.367716722363202  0.0000
  O1     O1        0.875909723728619    0.128434352654985    0.621070431555635  0.0000
  O1     O1        0.624930698223472    0.888444198372552    0.630271311018719  0.0000
  O3     O3        0.909589974072538    0.768450763167969    0.663599947915689  0.0000
  O1     O1        0.579973674987110    0.230927797810830    0.628244567761584  0.0000
  O1     O1        0.126127369089688    0.855033524256874    0.390963159514931  0.0000
  O3     O3        0.369374912946177    0.101131411034968    0.366650035758026  0.0000
  O1     O1        0.975141871196495    0.956413626979895    0.463685677403058  0.0000
  O1     O1        0.471022767914818    0.978990084037765    0.556113626666643  0.0000
  O1     O1        0.023571239535152    0.989544912899509    0.209510705201651  0.0000
  O1     O1        0.525357225219807    0.015758004622800    0.311362118088825  0.0000
  O3     O3        0.022902099626140    0.014931556810685    0.711520979701058  0.0000
  O1     O1        0.522068917759948    0.002916082703787    0.809512919268303  0.0000
  O3     O3        0.589357103843142    0.203627722968073    0.107510982926630  0.0000
  O1     O1        0.919176045792815    0.736263710468395    0.131840054829341  0.0000
  O1     O1        0.372148073230515    0.103900377220350    0.882110141911300  0.0000
  O3     O3        0.121368846141312    0.881821957754513    0.880644237788697  0.0000
  O1     O1        0.409767387151661    0.760738031483783    0.872970019188366  0.0000
  O3     O3        0.072925868545462    0.204109613651575    0.897193381171757  0.0000
  O1     O1        0.622850946895816    0.842947828144200    0.145281332345631  0.0000
  O1     O1        0.873225612606850    0.076484012816826    0.126782827911862  0.0000
  O1     O1        0.476364881095267    0.960133331495789    0.064046621271448  0.0000
  O3     O3        0.980173714594197    0.952703781096926    0.948271961475657  0.0000
  O1     O1        0.158440807996578    0.515257168378668    0.356152307864007  0.0000
  O3     O3        0.343000265765855    0.434088292066837    0.337945506665384  0.0000
  O3     O3        0.836770317761070    0.475809375886861    0.670184211159060  0.0000
  O1     O1        0.653027729639746    0.543841603837451    0.662563827029472  0.0000
  O3     O3        0.236909895471768    0.214236451507688    0.284489364928670  0.0000
  O1     O1        0.268458392993097    0.750443895801320    0.287652579505406  0.0000
  O1     O1        0.731392011397183    0.226034313272223    0.707199809807583  0.0000
  O3     O3        0.768536246526760    0.767229532657333    0.732202464717983  0.0000
  O1     O1        0.114254955401619    0.333359039600434    0.138186468938088  0.0000
  O1     O1        0.383061918202742    0.633286030767997    0.121852285768968  0.0000
  O1     O1        0.857777699800439    0.222055052135601    0.877215875533359  0.0000
  O1     O1        0.640655728294757    0.750356974959472    0.886741380892939  0.0000
  O3     O3        0.871386764568640    0.614699574458553    0.885632486993808  0.0000
  O3     O3        0.621230923976560    0.343302792231436    0.879300890060045  0.0000
  O1     O1        0.137166142753949    0.732972946960947    0.133721573357104  0.0000
  O3     O3        0.354061602100171    0.240547459044334    0.132231981219445  0.0000
  O3     O3        0.660880478243846    0.496213980437572    0.089499703787834  0.0000
  O1     O1        0.844342301105747    0.423928449064038    0.105740727771929  0.0000
  O1     O1        0.334399114228203    0.446492218505790    0.905923889276875  0.0000
  O1     O1        0.148515200928278    0.522249542181825    0.916512205267966  0.0000
  O3     O3        0.729132964829463    0.204766089933386    0.029489638958511  0.0000
  O1     O1        0.766712248358016    0.745289255138851    0.060334336513860  0.0000
  O1     O1        0.226028028304414    0.207243908798563    0.968085134154211  0.0000
  O1     O1        0.261726489166545    0.755055921762315    0.970254889213155  0.0000
