data_c00423.vasp
_audit_creation_method             Generated by GULP
_audit_author_name                 Salvador R. G. Balestra
_symmetry_space_group_name_H-M     'P 1             '
_symmetry_Int_Tables_number        1

loop_
_symmetry_equiv_pos_site_id
_symmetry_equiv_pos_as_xyz
_cell_length_a                       17.6151
_cell_length_b                        7.8203
_cell_length_c                       10.2551
_cell_angle_alpha                   89.2585
_cell_angle_beta                    89.9727
_cell_angle_gamma                   91.3853

loop_
_atom_site_label
_atom_site_type_symbol
_atom_site_fract_x
_atom_site_fract_y
_atom_site_fract_z
_atom_site_charge
  Ge     Ge        0.052090000000021    0.000000000000000    0.372269999999958  0.0000
  Ge     Ge        0.444635986277973    0.064662206814993    0.317939709937822  0.0000
  Ge     Ge        0.948059421375936    0.063357324259784    0.626440035838649  0.0000
  Ge     Ge        0.550012933298673    0.026996826798665    0.574625022889722  0.0000
  Ge     Ge        0.549275055048770    0.002085736756877    0.066895239999213  0.0000
  Ge     Ge        0.948665100764106    0.066476864490455    0.118202010052118  0.0000
  Ge     Ge        0.441091125993478    0.061108898612087    0.821165251318702  0.0000
  Ge     Ge        0.173163474860064    0.288767296672122    0.259349215727956  0.0000
  Ge     Ge        0.326078213381179    0.771116856038280    0.246433463020262  0.0000
  Ge     Ge        0.854638269094316    0.388111793915172    0.687244139651534  0.0000
  Ge     Ge        0.646498475422739    0.708956680755108    0.688485715024319  0.0000
  Ge     Ge        0.672482656354659    0.309521347860907    0.685173861774057  0.0000
  Ge     Ge        0.144751442491962    0.689192487689609    0.253146589739264  0.0000
  Ge     Ge        0.675065326862646    0.290047788378815    0.000836643842505  0.0000
  Ge     Ge        0.825603843631810    0.781420973965107    0.000647177139040  0.0000
  Ge     Ge        0.143569555393963    0.687476942951489    0.936206615471409  0.0000
  Ge     Ge        0.326157722503638    0.761634449691554    0.933299086809899  0.0000
  Ge     Ge        0.169029475698637    0.287452921279723    0.939941586132790  0.0000
  Ge     Ge        0.648067444594083    0.690949181724447    0.008426571190066  0.0000
  Ge     Ge        0.855320557707681    0.377610275674148    0.001185264610454  0.0000
  Si     Si        0.050597267135762    0.001680099905864    0.873854788336851  0.0000
  Si     Si        0.824627689818614    0.781147198709894    0.688639701358944  0.0000
  Si     Si        0.347339187370571    0.373933728211319    0.250572280907755  0.0000
  Si     Si        0.345696079641232    0.363869980222314    0.942511645926295  0.0000
  O1     O1        0.129641340745718    0.134623909513177    0.352503431290146  0.0000
  O1     O1        0.374841093128235    0.910098984328570    0.344859621272361  0.0000
  O1     O1        0.916773982398367    0.267020161394621    0.599871052457610  0.0000
  O1     O1        0.578605021825269    0.822923603677709    0.610120238591120  0.0000
  O3     O3        0.871483676579726    0.922263924753718    0.605769318689158  0.0000
  O1     O1        0.627004380655494    0.161451479411298    0.590530054558924  0.0000
  O1     O1        0.078448351876100    0.795471917822982    0.340302578172949  0.0000
  O3     O3        0.410944083787876    0.271591938074688    0.327573435625619  0.0000
  O1     O1        0.022749931875011    0.012674624662314    0.531651501712022  0.0000
  O1     O1        0.521619372658446    0.036031635694878    0.413673131089282  0.0000
  O1     O1        0.976399655617446    0.057702414468419    0.278084799228709  0.0000
  O1     O1        0.472231756670017    0.044020217815823    0.157930727857110  0.0000
  O3     O3        0.978725299712825    0.047224484404069    0.787946304947331  0.0000
  O1     O1        0.471315747557860    0.083048650428618    0.662167466896445  0.0000
  O1     O1        0.624001891560915    0.144114453129060    0.091504741595213  0.0000
  O1     O1        0.873390447330606    0.928828785279294    0.091294514473555  0.0000
  O3     O3        0.410218530265173    0.258410562793560    0.874019258058971  0.0000
  O3     O3        0.080056822762152    0.811462725345564    0.849440311198399  0.0000
  O1     O1        0.371994647092661    0.902917963324148    0.830121759945285  0.0000
  O3     O3        0.120718182240592    0.135636584097426    0.850292141135861  0.0000
  O1     O1        0.581828180069970    0.798795901347408    0.094413168086335  0.0000
  O1     O1        0.922028292593070    0.272881379355563    0.090461851229601  0.0000
  O1     O1        0.520893866823813    0.009376666374296    0.905663448283164  0.0000
  O3     O3        0.026252796472199    0.011737887976762    0.025717582095911  0.0000
  O1     O1        0.155065093268835    0.488322719693983    0.318315679270851  0.0000
  O3     O3        0.339266294911323    0.562616564814788    0.304554852023534  0.0000
  O3     O3        0.841754202650794    0.594269117921806    0.630177363945742  0.0000
  O1     O1        0.654443753082005    0.509907905211156    0.622965840398152  0.0000
  O3     O3        0.270155696467346    0.260764599560867    0.263875518252572  0.0000
  O1     O1        0.230243670108290    0.802260821601644    0.251114254281951  0.0000
  O1     O1        0.768523661288165    0.280938753442262    0.686712475311715  0.0000
  O3     O3        0.735124321893522    0.814155604015827    0.682243269899947  0.0000
  O1     O1        0.142302808028793    0.274041973482068    0.100683747393794  0.0000
  O1     O1        0.358819888458102    0.795316953185110    0.088828520182504  0.0000
  O1     O1        0.887819749459798    0.395122058160196    0.843815783280498  0.0000
  O1     O1        0.621088911789664    0.675440579243804    0.847567399155981  0.0000
  O3     O3        0.852891882712270    0.786849378602195    0.838180734131585  0.0000
  O1     O1        0.641093261601699    0.285193166416946    0.843411327231423  0.0000
  O1     O1        0.114755697992522    0.664531974660997    0.095299355410067  0.0000
  O2     O2        0.364751614356595    0.393993479875364    0.095323452669507  0.0000
  O1     O1        0.661989726356390    0.490094524142728    0.066987027987228  0.0000
  O1     O1        0.841942544404847    0.578115729931344    0.060202478541440  0.0000
  O3     O3        0.339797677408032    0.552841140360914    0.881340050629575  0.0000
  O1     O1        0.149114955512104    0.485900754122323    0.875126526127958  0.0000
  O1     O1        0.771071332782286    0.259400536045708    0.001661793433341  0.0000
  O1     O1        0.730533871207689    0.815147885425263    0.010329996049073  0.0000
  O3     O3        0.266175748474101    0.259159017941540    0.929088590964446  0.0000
  O1     O1        0.230343518842071    0.792387057544525    0.932875138017159  0.0000
