data_c00431.vasp
_audit_creation_method             Generated by GULP
_audit_author_name                 Salvador R. G. Balestra
_symmetry_space_group_name_H-M     'P 1             '
_symmetry_Int_Tables_number        1

loop_
_symmetry_equiv_pos_site_id
_symmetry_equiv_pos_as_xyz
_cell_length_a                       17.6396
_cell_length_b                        7.8204
_cell_length_c                       10.2657
_cell_angle_alpha                   90.6695
_cell_angle_beta                    89.4627
_cell_angle_gamma                   91.2268

loop_
_atom_site_label
_atom_site_type_symbol
_atom_site_fract_x
_atom_site_fract_y
_atom_site_fract_z
_atom_site_charge
  Ge     Ge        0.052090000000021    0.000000000000000    0.372269999999958  0.0000
  Ge     Ge        0.445189577121859    0.057037759191898    0.331024225151851  0.0000
  Ge     Ge        0.948574183423723    0.036515309675195    0.630193643707203  0.0000
  Ge     Ge        0.551884127969127    0.000443141711785    0.578880184967357  0.0000
  Ge     Ge        0.545915235664501    0.994859453180216    0.073104263641331  0.0000
  Ge     Ge        0.944756465229837    0.055280251732628    0.125994882729473  0.0000
  Ge     Ge        0.439674126774432    0.043414212411332    0.823519676525568  0.0000
  Ge     Ge        0.167528367187143    0.297457021379248    0.265396630862203  0.0000
  Ge     Ge        0.323656476122732    0.772500009020556    0.251160482503918  0.0000
  Ge     Ge        0.855137108895996    0.362886887124901    0.695308940629263  0.0000
  Ge     Ge        0.647376099209670    0.685800427064490    0.692026418494102  0.0000
  Ge     Ge        0.673274796481435    0.285734494227426    0.691191751415000  0.0000
  Ge     Ge        0.347549558005798    0.368004133913274    0.260830502710669  0.0000
  Ge     Ge        0.672146573640109    0.278819185963277    0.006521368943857  0.0000
  Ge     Ge        0.822813975602232    0.768031460497586    0.006716754908037  0.0000
  Ge     Ge        0.144423998236644    0.676225715618974    0.938696387284812  0.0000
  Ge     Ge        0.324355544440353    0.747427577867401    0.935733835632751  0.0000
  Ge     Ge        0.164345914770725    0.275031728288996    0.951682474035510  0.0000
  Ge     Ge        0.644983736178323    0.680891445629465    0.011115877680409  0.0000
  Ge     Ge        0.852415208763955    0.363480331161689    0.009059235974540  0.0000
  Si     Si        0.048490161921545    0.986026594460381    0.880853148872197  0.0000
  Si     Si        0.825280136341105    0.756840525262776    0.695424536917961  0.0000
  Si     Si        0.147527259109742    0.693392327289755    0.249742782310098  0.0000
  Si     Si        0.342709717358380    0.346572877957243    0.951120300300689  0.0000
  O1     O1        0.118532868885510    0.162372454028133    0.366630276554203  0.0000
  O1     O1        0.368892746099764    0.917121793169062    0.349743516557752  0.0000
  O1     O1        0.917038335094586    0.240050191660047    0.606123494905011  0.0000
  O1     O1        0.580744365749856    0.797091240465140    0.610499654015550  0.0000
  O3     O3        0.872282970736872    0.894431916842059    0.612000153573451  0.0000
  O1     O1        0.628523453764934    0.134935097533496    0.596124392619631  0.0000
  O3     O3        0.085659211307207    0.802228409411815    0.326149054847355  0.0000
  O1     O1        0.412925988856190    0.261480291692729    0.349669787772504  0.0000
  O1     O1        0.022381866976809    0.984664184802212    0.532037979819489  0.0000
  O1     O1        0.522482923283821    0.009648728027941    0.418789346190684  0.0000
  O1     O1        0.972907889147737    0.044345198616230    0.284648900831769  0.0000
  O1     O1        0.469890187198170    0.036859826500646    0.168007866140118  0.0000
  O3     O3        0.978632170271809    0.026605779595385    0.791267826768611  0.0000
  O1     O1        0.472387061788911    0.057809806186640    0.665491863925701  0.0000
  O1     O1        0.620645400549877    0.137053726540062    0.097804814986222  0.0000
  O1     O1        0.869364349865213    0.918497459872912    0.097750892386343  0.0000
  O3     O3        0.400953620695353    0.237977145302821    0.865972322422574  0.0000
  O3     O3        0.077829156717644    0.793912095650882    0.858483765355948  0.0000
  O1     O1        0.374450232283801    0.877511202523140    0.832787732741175  0.0000
  O3     O3        0.118725929178272    0.119451071409248    0.859660750479228  0.0000
  O1     O1        0.578083977436300    0.791160972113598    0.096754686669412  0.0000
  O1     O1        0.917443253641371    0.261137715449625    0.100680388187488  0.0000
  O1     O1        0.518520509069370    0.005043344628368    0.912345399237220  0.0000
  O3     O3        0.022215820041312    0.000974498528109    0.031395842209145  0.0000
  O3     O3        0.158561578201620    0.510156113251075    0.315377693625430  0.0000
  O1     O1        0.341469227965218    0.573774133787935    0.313353150234783  0.0000
  O3     O3        0.842452587250302    0.567311242879320    0.638465041853893  0.0000
  O1     O1        0.655686347527363    0.484090697288613    0.628139065595493  0.0000
  O1     O1        0.262394271815035    0.257759521492912    0.271378697130611  0.0000
  O3     O3        0.226562184358258    0.801640049803427    0.248890993077720  0.0000
  O1     O1        0.768932613110457    0.256345693596212    0.694302446881661  0.0000
  O3     O3        0.735830079390829    0.789943929192446    0.688165302220148  0.0000
  O1     O1        0.133497074874878    0.264303356201491    0.110770475758156  0.0000
  O1     O1        0.355210631826931    0.784760537244485    0.091836584948649  0.0000
  O1     O1        0.886791467163857    0.373389668577330    0.852279152043460  0.0000
  O1     O1        0.618698077515809    0.662680280537980    0.850265598314627  0.0000
  O3     O3        0.852168514146185    0.768136462451843    0.845052026130341  0.0000
  O1     O1        0.639932599217022    0.269076136026996    0.848546919960558  0.0000
  O3     O3        0.122107630960059    0.654544076353033    0.102609769942478  0.0000
  O3     O3        0.373516255922632    0.371565370216512    0.096834016089335  0.0000
  O1     O1        0.657892769899938    0.481900833428268    0.070383986919985  0.0000
  O1     O1        0.838413592949493    0.566584030232327    0.066486740090124  0.0000
  O3     O3        0.333386291922823    0.533344260338007    0.890900337097104  0.0000
  O1     O1        0.146435865594517    0.469962921406513    0.882571268504416  0.0000
  O1     O1        0.767888767043119    0.247299542236152    0.008555510411086  0.0000
  O1     O1        0.727716171765015    0.802938901689360    0.013945459245231  0.0000
  O3     O3        0.261494491694485    0.247034783593484    0.954285980609340  0.0000
  O1     O1        0.229312687827824    0.784553378578782    0.924665113458988  0.0000
