data_c00433.vasp
_audit_creation_method             Generated by GULP
_audit_author_name                 Salvador R. G. Balestra
_symmetry_space_group_name_H-M     'P 1             '
_symmetry_Int_Tables_number        1

loop_
_symmetry_equiv_pos_site_id
_symmetry_equiv_pos_as_xyz
_cell_length_a                       17.5831
_cell_length_b                        7.8185
_cell_length_c                       10.2674
_cell_angle_alpha                   89.5820
_cell_angle_beta                    89.4513
_cell_angle_gamma                   88.5604

loop_
_atom_site_label
_atom_site_type_symbol
_atom_site_fract_x
_atom_site_fract_y
_atom_site_fract_z
_atom_site_charge
  Ge     Ge        0.052090000000021    0.000000000000000    0.372269999999958  0.0000
  Ge     Ge        0.444039979607353    0.959972186330492    0.368393318469310  0.0000
  Ge     Ge        0.949740891472561    0.947323287391440    0.629662677094160  0.0000
  Ge     Ge        0.551235701648052    0.009180849810379    0.617958282775430  0.0000
  Ge     Ge        0.553085593884580    0.005077169598856    0.120696219140615  0.0000
  Ge     Ge        0.942427236644159    0.941721147410201    0.127764404000283  0.0000
  Ge     Ge        0.446940738289821    0.948504998477383    0.873266878901543  0.0000
  Ge     Ge        0.139481834673260    0.325260238059500    0.260540797850509  0.0000
  Ge     Ge        0.349050877353771    0.645193111885818    0.252368266022672  0.0000
  Ge     Ge        0.829222746964274    0.241879451268299    0.693049377904932  0.0000
  Ge     Ge        0.673240865876648    0.723443202727212    0.697158557806218  0.0000
  Ge     Ge        0.649637634084308    0.321654892816916    0.685034589734971  0.0000
  Ge     Ge        0.322495775095404    0.245914684224290    0.260549171895251  0.0000
  Ge     Ge        0.851461377004620    0.628956429827338    0.011944793487867  0.0000
  Ge     Ge        0.322143175850643    0.236009405577887    0.946192475448762  0.0000
  Ge     Ge        0.165689219470586    0.718464936459403    0.945571190631817  0.0000
  Ge     Ge        0.345105440667387    0.638712933234224    0.932961473214845  0.0000
  Ge     Ge        0.140526186946548    0.315403446125743    0.947809819485685  0.0000
  Ge     Ge        0.670469854764874    0.709026748325388    0.011729489268033  0.0000
  Ge     Ge        0.823014468585664    0.226821861927762    0.009399016937823  0.0000
  Si     Si        0.045567938652288    0.008657094366097    0.881751938915039  0.0000
  Si     Si        0.850246135848870    0.638988591849758    0.702277073579333  0.0000
  Si     Si        0.170378301921403    0.717721179157568    0.256240807888956  0.0000
  Si     Si        0.646195367380127    0.311690671760690    0.997350604192249  0.0000
  O1     O1        0.077036548746328    0.209601247313355    0.353081245882342  0.0000
  O1     O1        0.416474051691600    0.757205916742431    0.331235515447254  0.0000
  O1     O1        0.883623978925618    0.107822612687600    0.597501974912920  0.0000
  O1     O1        0.628070329567125    0.869669662988139    0.599310913790837  0.0000
  O3     O3        0.909535266329999    0.747873398915095    0.618596850914065  0.0000
  O1     O1        0.583440496329586    0.213534435348773    0.599034445120815  0.0000
  O3     O3        0.129054997612294    0.867168396160725    0.336700194443603  0.0000
  O1     O1        0.366689218666013    0.094989114835365    0.356345805274209  0.0000
  O1     O1        0.027610339540553    0.963941831349155    0.532670489296304  0.0000
  O1     O1        0.474512966622629    0.961981520543005    0.527859474057808  0.0000
  O1     O1        0.972292908585223    0.953677408518866    0.285453035442448  0.0000
  O1     O1        0.521942279512530    0.021994769890911    0.279507485000174  0.0000
  O3     O3        0.975243633336962    0.971779048366314    0.791656063008252  0.0000
  O1     O1        0.523688232040513    0.990789771744583    0.779704598706431  0.0000
  O3     O3        0.582352797663592    0.206001383497511    0.071837512140047  0.0000
  O1     O1        0.919604487232112    0.734346142072221    0.094230829224839  0.0000
  O1     O1        0.372768736603642    0.094448040409340    0.852573639250738  0.0000
  O3     O3        0.111979846647044    0.865432243773051    0.859604240863200  0.0000
  O1     O1        0.410915400741447    0.749017220577289    0.845329681731222  0.0000
  O3     O3        0.079362596444646    0.195377179282695    0.855784628893490  0.0000
  O1     O1        0.623235513147074    0.848753096105497    0.112653095043296  0.0000
  O1     O1        0.863247106142659    0.071378239982388    0.105271102854844  0.0000
  O1     O1        0.475241652211042    0.949901625752053    0.033755087317269  0.0000
  O3     O3        0.018296988372042    0.004939285768868    0.032318847645999  0.0000
  O3     O3        0.152050568611549    0.531678726682854    0.317126403586408  0.0000
  O1     O1        0.341988829890776    0.445478542668633    0.319598254793307  0.0000
  O3     O3        0.839197553085565    0.453614826509470    0.641508246607197  0.0000
  O1     O1        0.656705512458402    0.526289615398619    0.630347661258648  0.0000
  O1     O1        0.226292681394319    0.220146652220197    0.261441386855255  0.0000
  O3     O3        0.260217268487414    0.748913620244205    0.257145769285014  0.0000
  O1     O1        0.734033853592449    0.205721826375649    0.677137652034813  0.0000
  O3     O3        0.770681330819842    0.747555439237033    0.705816534208927  0.0000
  O1     O1        0.106394026665257    0.334839846826129    0.104482262224725  0.0000
  O1     O1        0.373861688477272    0.620561480611395    0.092397300031093  0.0000
  O1     O1        0.855907942523273    0.211194910415089    0.852016749965509  0.0000
  O1     O1        0.639677338030463    0.741588425849425    0.855008503554987  0.0000
  O3     O3        0.878460807759842    0.611597776527601    0.849505916145132  0.0000
  O3     O3        0.623181262801979    0.340518800846067    0.847889123898067  0.0000
  O3     O3        0.139769804996337    0.719989794645030    0.108824581868057  0.0000
  O1     O1        0.356022804529214    0.225283923436502    0.103126927451973  0.0000
  O3     O3        0.655787807744880    0.497738629434858    0.059733641015544  0.0000
  O1     O1        0.843386609493990    0.424707173619475    0.070504903005013  0.0000
  O1     O1        0.332985380043203    0.437043208213819    0.877674207976677  0.0000
  O1     O1        0.150206913114710    0.516455073652354    0.885158772515767  0.0000
  O3     O3        0.725302513320738    0.203348188745524    0.005174512129401  0.0000
  O1     O1        0.766291429359936    0.740273072954850    0.022489773436377  0.0000
  O1     O1        0.226141991809932    0.203662061039205    0.952389771597033  0.0000
  O1     O1        0.260325650840240    0.756299119634715    0.930086307580209  0.0000
