data_c00445.vasp
_audit_creation_method             Generated by GULP
_audit_author_name                 Salvador R. G. Balestra
_symmetry_space_group_name_H-M     'P 1             '
_symmetry_Int_Tables_number        1

loop_
_symmetry_equiv_pos_site_id
_symmetry_equiv_pos_as_xyz
_cell_length_a                       17.6426
_cell_length_b                        7.8005
_cell_length_c                       10.2489
_cell_angle_alpha                   88.1814
_cell_angle_beta                    90.8571
_cell_angle_gamma                   90.8819

loop_
_atom_site_label
_atom_site_type_symbol
_atom_site_fract_x
_atom_site_fract_y
_atom_site_fract_z
_atom_site_charge
  Ge     Ge        0.052090000000021    0.000000000000000    0.372269999999958  0.0000
  Ge     Ge        0.444920448231712    0.048339152897824    0.322705639485773  0.0000
  Ge     Ge        0.947135340171734    0.068775072228640    0.621464566514835  0.0000
  Ge     Ge        0.550747677839359    0.020033679490147    0.579399790146687  0.0000
  Ge     Ge        0.547043549906945    0.986152598637981    0.069432420398512  0.0000
  Ge     Ge        0.943430397116036    0.048859466747179    0.119602646452821  0.0000
  Ge     Ge        0.439420008414020    0.056016058082768    0.818463203315391  0.0000
  Ge     Ge        0.172124905604697    0.284713905068908    0.260597069227154  0.0000
  Ge     Ge        0.324085124215504    0.760858751214908    0.251525612610248  0.0000
  Ge     Ge        0.848579215229260    0.383327833394572    0.684561398614908  0.0000
  Ge     Ge        0.822780667480870    0.786289474140846    0.695657605190404  0.0000
  Ge     Ge        0.668479949609381    0.311602368981956    0.684962233776789  0.0000
  Ge     Ge        0.143105414733945    0.684941236166111    0.258202547674677  0.0000
  Ge     Ge        0.671209200425318    0.275009545733439    0.999866093767549  0.0000
  Ge     Ge        0.826112144431792    0.756802610929237    0.012869298325193  0.0000
  Ge     Ge        0.344674907174781    0.361143268045522    0.942444094681204  0.0000
  Ge     Ge        0.139993432988077    0.686522712144928    0.940979231029590  0.0000
  Ge     Ge        0.319945263797084    0.769028661233934    0.936547598864227  0.0000
  Ge     Ge        0.164754306048838    0.282793439428118    0.944031768242586  0.0000
  Ge     Ge        0.648331692501878    0.675981749805300    0.016491811334624  0.0000
  Si     Si        0.045271916128699    0.000373058178538    0.875547266637713  0.0000
  Si     Si        0.646960372657685    0.707942970607652    0.702081140507028  0.0000
  Si     Si        0.348220183971495    0.363129776863172    0.252643926657163  0.0000
  Si     Si        0.847185706408719    0.357077026850347    0.995492946970658  0.0000
  O1     O1        0.131463844340451    0.127505244699920    0.355975086306364  0.0000
  O1     O1        0.375209764681801    0.894777228610961    0.348886859784463  0.0000
  O1     O1        0.915840464657084    0.275323102558582    0.601905455980317  0.0000
  O3     O3        0.582663986544910    0.819851859331294    0.630543706056130  0.0000
  O1     O1        0.869250360211447    0.936173100760253    0.601211692776586  0.0000
  O1     O1        0.618170734986226    0.179121996436421    0.585150194019340  0.0000
  O1     O1        0.076513913889729    0.793400044278554    0.341791855119542  0.0000
  O3     O3        0.408244924608728    0.252443231332393    0.337338408126057  0.0000
  O1     O1        0.022066208194834    0.016926415465422    0.530549000669752  0.0000
  O1     O1        0.522865725706638    0.011440560122645    0.417566278654764  0.0000
  O1     O1        0.976553530168990    0.065477999042470    0.276841409946698  0.0000
  O1     O1        0.472586146765462    0.034600566134734    0.162235978749985  0.0000
  O3     O3        0.973866727347705    0.042732465675493    0.785495479994389  0.0000
  O1     O1        0.469232547421808    0.066284876147519    0.659583171671694  0.0000
  O1     O1        0.624280201395688    0.122121681199405    0.089651219270724  0.0000
  O1     O1        0.877405779770628    0.885781885842908    0.114147274323649  0.0000
  O1     O1        0.412684733858510    0.258149011241816    0.860995245795208  0.0000
  O3     O3        0.075735111886749    0.810350089186393    0.851659350520700  0.0000
  O1     O1        0.364147464703735    0.915533459518885    0.835304598751630  0.0000
  O3     O3        0.113203692861957    0.138790425879023    0.853032694937479  0.0000
  O1     O1        0.579923360175837    0.780794464877792    0.096624561255729  0.0000
  O3     O3        0.908684535237063    0.248714414506765    0.076618775298640  0.0000
  O1     O1        0.517136551473835    0.994493516379613    0.908681863068731  0.0000
  O3     O3        0.021099655924541    0.004050429622492    0.026972824584270  0.0000
  O1     O1        0.154329123261199    0.481432040464844    0.323574924761340  0.0000
  O3     O3        0.337303508612941    0.549703014187964    0.308605970164231  0.0000
  O1     O1        0.841190365566075    0.590576750348296    0.630126524960257  0.0000
  O3     O3        0.656729882250877    0.525641372742073    0.635517026641909  0.0000
  O3     O3        0.268910161727630    0.256769786534204    0.252248995364938  0.0000
  O1     O1        0.228548477582663    0.795882540189796    0.258490865516135  0.0000
  O1     O1        0.763608327002924    0.273765769469492    0.673919669961818  0.0000
  O3     O3        0.725671104151081    0.816679748663886    0.695203764498290  0.0000
  O1     O1        0.136850852316241    0.271103413202935    0.103909901516396  0.0000
  O1     O1        0.354775351259165    0.788466290765775    0.093491673252722  0.0000
  O3     O3        0.874351414860662    0.392002894985875    0.848499447535659  0.0000
  O3     O3        0.626517931027866    0.662929206079297    0.850875594095581  0.0000
  O1     O1        0.853974903629779    0.796340971104502    0.855251659246050  0.0000
  O1     O1        0.637909625628521    0.269445615326450    0.841044469057789  0.0000
  O1     O1        0.112705493761301    0.658907540400094    0.100344337469030  0.0000
  O3     O3        0.374195836915505    0.384738339191903    0.103111194149771  0.0000
  O1     O1        0.655002943853523    0.468467498727444    0.070567299768138  0.0000
  O3     O3        0.835790809998192    0.540580974840584    0.058191650923324  0.0000
  O1     O1        0.332927030448282    0.565511993550406    0.880773858564298  0.0000
  O1     O1        0.149142031920126    0.487455026664777    0.879432149545965  0.0000
  O3     O3        0.768495256749957    0.247852290881920    0.994643949714933  0.0000
  O1     O1        0.731330746646963    0.793090362639159    0.028798508911211  0.0000
  O1     O1        0.260337673278671    0.247057961895204    0.935307241270164  0.0000
  O1     O1        0.224251112906964    0.800298424983246    0.941153494830584  0.0000
