data_c00420.vasp
_audit_creation_method             Generated by GULP
_audit_author_name                 Salvador R. G. Balestra
_symmetry_space_group_name_H-M     'P 1             '
_symmetry_Int_Tables_number        1

loop_
_symmetry_equiv_pos_site_id
_symmetry_equiv_pos_as_xyz
_cell_length_a                       17.5756
_cell_length_b                        7.7769
_cell_length_c                       10.4476
_cell_angle_alpha                   88.1799
_cell_angle_beta                    89.1253
_cell_angle_gamma                   91.7402

loop_
_atom_site_label
_atom_site_type_symbol
_atom_site_fract_x
_atom_site_fract_y
_atom_site_fract_z
_atom_site_charge
  Ge     Ge        0.052090000000021    0.000000000000000    0.372269999999958  0.0000
  Ge     Ge        0.459237037912214    0.013112329887762    0.359889191840727  0.0000
  Ge     Ge        0.964553332443835    0.049298860577404    0.638860512888615  0.0000
  Ge     Ge        0.567547482986714    0.024471845000740    0.610137495009856  0.0000
  Ge     Ge        0.566634899257172    0.003921955606765    0.105257934766888  0.0000
  Ge     Ge        0.962698311377088    0.026811497651558    0.098090568724012  0.0000
  Ge     Ge        0.460597478807523    0.012891185331559    0.861196352276870  0.0000
  Ge     Ge        0.159271723847163    0.323585478530015    0.297567526129788  0.0000
  Ge     Ge        0.360960380479263    0.688392077450591    0.286091043902985  0.0000
  Ge     Ge        0.873593726060173    0.376553932089633    0.711793782489406  0.0000
  Ge     Ge        0.667704997700455    0.720230868175650    0.729214116383509  0.0000
  Ge     Ge        0.692074703032468    0.306217680113102    0.720613807736224  0.0000
  Ge     Ge        0.178299312805634    0.736780385694816    0.285871394374243  0.0000
  Ge     Ge        0.693016983974442    0.283440526126134    0.027797638738026  0.0000
  Ge     Ge        0.835107049662585    0.741790658466585    0.038394440986799  0.0000
  Ge     Ge        0.340683957561199    0.275090027612625    0.989994948296317  0.0000
  Ge     Ge        0.182762341548553    0.728771994842011    0.977138919601910  0.0000
  Ge     Ge        0.368812592182143    0.683082233669578    0.976069240413589  0.0000
  Ge     Ge        0.658116150601203    0.685000790922309    0.034742552938884  0.0000
  Ge     Ge        0.876978258138356    0.363607407123821    0.029262845406726  0.0000
  Si     Si        0.076184666269331    0.012630742119479    0.867399247279248  0.0000
  Si     Si        0.840401245881063    0.757409558697219    0.729278250197694  0.0000
  Si     Si        0.336885443339213    0.283009807329694    0.296731911489215  0.0000
  Si     Si        0.161364312733127    0.323587490124414    0.992198930276944  0.0000
  O1     O1        0.090710878504095    0.205378110005717    0.380464511919402  0.0000
  O1     O1        0.419852431815315    0.808001987228130    0.379936359408967  0.0000
  O1     O1        0.937001988407724    0.257991122514519    0.627161305991517  0.0000
  O1     O1        0.601747180766303    0.823286643046360    0.637968768621622  0.0000
  O3     O3        0.888907225486471    0.933745119835527    0.712929167348588  0.0000
  O1     O1        0.640159015511427    0.173255887215932    0.626070509791861  0.0000
  O1     O1        0.127523038735146    0.865329614727589    0.382169507879934  0.0000
  O3     O3        0.386973782510033    0.158354495237488    0.383066561216203  0.0000
  O1     O1        0.984611844819190    0.971396529667120    0.491379072600942  0.0000
  O1     O1        0.534933721006358    0.043541972044245    0.456422650722251  0.0000
  O1     O1        0.009343527612095    0.956778543078187    0.229603770737785  0.0000
  O1     O1        0.492980387887727    0.044188307895738    0.205986217408753  0.0000
  O3     O3        0.048176269997595    0.031943525516125    0.723513855809045  0.0000
  O1     O1        0.489065704189678    0.057633522783984    0.706746787429299  0.0000
  O1     O1        0.648342724316046    0.128606765651401    0.123728994563716  0.0000
  O1     O1        0.872714577665088    0.931004035826658    0.085049208606558  0.0000
  O1     O1        0.379855433062050    0.119893688175982    0.903503710070518  0.0000
  O3     O3        0.140567628899380    0.871764594733393    0.872071033304077  0.0000
  O1     O1        0.434493098976320    0.798062197224642    0.883909330854693  0.0000
  O2     O2        0.103061310139770    0.200544711516949    0.916788876697645  0.0000
  O1     O1        0.590413102118401    0.791789234011041    0.119433857801682  0.0000
  O1     O1        0.942400624952332    0.239611393449509    0.106446595511867  0.0000
  O1     O1        0.534936340046339    0.068912406018485    0.955561173715393  0.0000
  O3     O3        0.006063332321291    0.953640271973391    0.960686430589517  0.0000
  O1     O1        0.163680640557791    0.528841962083282    0.345959797420809  0.0000
  O3     O3        0.347901807566909    0.478433305697829    0.342490188835513  0.0000
  O3     O3        0.888936671052587    0.597970281955714    0.681873174549921  0.0000
  O1     O1        0.650374825909155    0.502526163473995    0.725771587349397  0.0000
  O3     O3        0.247708174760372    0.230585267360151    0.308516860191772  0.0000
  O1     O1        0.273846875424195    0.783918961403683    0.283689824917906  0.0000
  O1     O1        0.783215783125686    0.334154742147853    0.660489285808160  0.0000
  O3     O3        0.758436556692518    0.772552753464114    0.663957936764620  0.0000
  O3     O3        0.131995707507959    0.321169727307226    0.138275249689395  0.0000
  O1     O1        0.397198742134443    0.694179198662989    0.132593075003892  0.0000
  O1     O1        0.887251761380571    0.318814147461359    0.869541268783232  0.0000
  O1     O1        0.654382907422823    0.783241009452690    0.883478761958318  0.0000
  O3     O3        0.815635784716482    0.707933547476322    0.876518590758142  0.0000
  O1     O1        0.699243038831443    0.217555741662544    0.872215629413397  0.0000
  O1     O1        0.148922486575167    0.755916364781146    0.129099276070405  0.0000
  O3     O3        0.365139194048537    0.273260404132651    0.149611501330427  0.0000
  O1     O1        0.640374844958081    0.468537493872594    0.031183367106995  0.0000
  O1     O1        0.894435751286137    0.573632310509138    0.069606380253207  0.0000
  O1     O1        0.366164190908704    0.474869536363210    0.926915582572826  0.0000
  O3     O3        0.163751065989830    0.516640402456723    0.934065609770475  0.0000
  O1     O1        0.783436874585432    0.327651328740088    0.078332906403945  0.0000
  O1     O1        0.745378288678595    0.720664058999515    0.103496787854379  0.0000
  O3     O3        0.243308106120603    0.241167245246554    0.985231592528766  0.0000
  O1     O1        0.278700681774145    0.764162879369024    0.967956622928743  0.0000
