data_c00444.vasp
_audit_creation_method             Generated by GULP
_audit_author_name                 Salvador R. G. Balestra
_symmetry_space_group_name_H-M     'P 1             '
_symmetry_Int_Tables_number        1

loop_
_symmetry_equiv_pos_site_id
_symmetry_equiv_pos_as_xyz
_cell_length_a                       17.5965
_cell_length_b                        7.8226
_cell_length_c                       10.1855
_cell_angle_alpha                   90.6998
_cell_angle_beta                    89.7384
_cell_angle_gamma                   88.5611

loop_
_atom_site_label
_atom_site_type_symbol
_atom_site_fract_x
_atom_site_fract_y
_atom_site_fract_z
_atom_site_charge
  Ge     Ge        0.052090000000021    0.000000000000000    0.372269999999958  0.0000
  Ge     Ge        0.444444595594458    0.959435462361099    0.328696062631272  0.0000
  Ge     Ge        0.945882835428123    0.941430273052365    0.625083456664851  0.0000
  Ge     Ge        0.554970535732795    0.001080657440247    0.573234369277468  0.0000
  Ge     Ge        0.542487024177654    0.020405350714422    0.067386244509632  0.0000
  Ge     Ge        0.943159754635188    0.952109181783617    0.122924745557568  0.0000
  Ge     Ge        0.439071119416870    0.953638971473192    0.812602801573212  0.0000
  Ge     Ge        0.139547913968741    0.321593339026440    0.256094295231370  0.0000
  Ge     Ge        0.347015830153707    0.643461007015398    0.256038325727941  0.0000
  Ge     Ge        0.825337462192614    0.237535855171147    0.690293540312411  0.0000
  Ge     Ge        0.670393372643686    0.704649026345185    0.683833438103732  0.0000
  Ge     Ge        0.321907218603659    0.242181443676528    0.253614518455569  0.0000
  Ge     Ge        0.644261594133636    0.329217456852328    0.006932286620873  0.0000
  Ge     Ge        0.847927160244101    0.643226290210529    0.000542805912903  0.0000
  Ge     Ge        0.319054954464429    0.240296266695275    0.936178413061477  0.0000
  Ge     Ge        0.164075977607234    0.721272045600889    0.943198293753597  0.0000
  Ge     Ge        0.345148149539998    0.646059702090752    0.936617532400458  0.0000
  Ge     Ge        0.137267812284985    0.319103572588072    0.940962384097777  0.0000
  Ge     Ge        0.668990061620901    0.733375361874196    0.000641477004274  0.0000
  Ge     Ge        0.822111219508488    0.237375519735916    0.009349061794778  0.0000
  Si     Si        0.044671993544574    0.008832914306204    0.875479336902163  0.0000
  Si     Si        0.848325722130605    0.629974816385226    0.687712686605623  0.0000
  Si     Si        0.647759315702462    0.312082989666528    0.691508115770826  0.0000
  Si     Si        0.168650793197289    0.715654190668308    0.254593116881982  0.0000
  O1     O1        0.078270666842731    0.207817727064386    0.350678163839035  0.0000
  O1     O1        0.408765017350239    0.759066761803592    0.348990990821050  0.0000
  O1     O1        0.875430640822919    0.092688350741974    0.595490553429405  0.0000
  O1     O1        0.625584942670008    0.847530132629240    0.583279217773345  0.0000
  O3     O3        0.908444344366869    0.739526945352008    0.607632660374519  0.0000
  O3     O3        0.585559344740157    0.201888897965338    0.616802879892308  0.0000
  O3     O3        0.128316861937245    0.862240881052646    0.341929282960817  0.0000
  O1     O1        0.370069767539831    0.103164487747152    0.352785872065408  0.0000
  O1     O1        0.024640400888991    0.970255838518438    0.532654692096145  0.0000
  O1     O1        0.525274649454990    0.003462131070704    0.411728404761687  0.0000
  O1     O1        0.973059180973625    0.952694549204405    0.282501836295129  0.0000
  O1     O1        0.467407304930371    0.975963491026033    0.163288221271818  0.0000
  O3     O3        0.972723146003228    0.965631943580589    0.788735767949868  0.0000
  O1     O1        0.472317431910920    0.953650618508192    0.653538653616163  0.0000
  O1     O1        0.574909196648245    0.225481566107291    0.088847095027920  0.0000
  O1     O1        0.916962555667290    0.748122702658872    0.082553237335799  0.0000
  O1     O1        0.363061094072162    0.093023595120827    0.834675310152569  0.0000
  O3     O3        0.112406122424008    0.868131526034454    0.854279478549035  0.0000
  O1     O1        0.411198751752950    0.749798373875794    0.846569825107700  0.0000
  O3     O3        0.076118338633586    0.196591851228919    0.847470155460857  0.0000
  O1     O1        0.617580072225087    0.878130236682185    0.091942811341539  0.0000
  O1     O1        0.868474881240099    0.095122484506450    0.108098359169422  0.0000
  O1     O1        0.515304272826790    0.010043835896752    0.905339615531275  0.0000
  O3     O3        0.020118851071200    0.008487564142062    0.028493115976946  0.0000
  O3     O3        0.152958604405139    0.528776582663119    0.313656380448804  0.0000
  O1     O1        0.339457717793389    0.443707217619675    0.315971808284436  0.0000
  O3     O3        0.841306243114545    0.440472511281278    0.628925108350957  0.0000
  O3     O3        0.654951191372951    0.497951822827902    0.627162996461772  0.0000
  O1     O1        0.225926523527748    0.213787047232201    0.254681457101735  0.0000
  O3     O3        0.258284548253372    0.747001326636785    0.250832371211488  0.0000
  O3     O3        0.728084964087929    0.207656172300363    0.684600133766286  0.0000
  O3     O3        0.767597049374405    0.732605863297091    0.685294589842233  0.0000
  O1     O1        0.104632022321822    0.334938629247155    0.100155262129662  0.0000
  O1     O1        0.377040305053129    0.632599239110055    0.095282909700257  0.0000
  O1     O1        0.853631892960963    0.213744601313018    0.849900570842811  0.0000
  O1     O1        0.637662023369892    0.743025882263964    0.840110806178464  0.0000
  O3     O3        0.874272268421753    0.610455877148037    0.838033198832943  0.0000
  O3     O3        0.623191752910091    0.348413575116012    0.840933853507671  0.0000
  O3     O3        0.136170928942095    0.722780421948608    0.106897417487432  0.0000
  O1     O1        0.354178289718618    0.226075454509522    0.093252296521016  0.0000
  O1     O1        0.654929986662303    0.532031991938036    0.063956338556435  0.0000
  O1     O1        0.835594465518931    0.444588644636994    0.063654665670757  0.0000
  O1     O1        0.332831218640957    0.443041274645894    0.877454268619159  0.0000
  O1     O1        0.146558278671304    0.519662840508120    0.880190807525613  0.0000
  O1     O1        0.726204775791911    0.205671753137132    0.016063669098807  0.0000
  O1     O1        0.765024405372964    0.765227187545084    0.006283646771867  0.0000
  O1     O1        0.223194164183887    0.209864667579680    0.943596903305516  0.0000
  O1     O1        0.259063623523411    0.757690562019734    0.931807736891576  0.0000
