data_c00443.vasp
_audit_creation_method             Generated by GULP
_audit_author_name                 Salvador R. G. Balestra
_symmetry_space_group_name_H-M     'P 1             '
_symmetry_Int_Tables_number        1

loop_
_symmetry_equiv_pos_site_id
_symmetry_equiv_pos_as_xyz
_cell_length_a                       17.6555
_cell_length_b                        7.8255
_cell_length_c                       10.1320
_cell_angle_alpha                   89.4362
_cell_angle_beta                    91.1054
_cell_angle_gamma                   88.6618

loop_
_atom_site_label
_atom_site_type_symbol
_atom_site_fract_x
_atom_site_fract_y
_atom_site_fract_z
_atom_site_charge
  Ge     Ge        0.052090000000021    0.000000000000000    0.372269999999958  0.0000
  Ge     Ge        0.443374420054540    0.960938234200206    0.400643412871633  0.0000
  Ge     Ge        0.939424564109443    0.958262008851767    0.615406374901817  0.0000
  Ge     Ge        0.550474934538897    0.018745633434872    0.654005265703647  0.0000
  Ge     Ge        0.551803068703116    0.005628994774967    0.156135305232507  0.0000
  Ge     Ge        0.952087718260319    0.942033749681007    0.107872585082097  0.0000
  Ge     Ge        0.445402646029657    0.950016090959316    0.903207783162037  0.0000
  Ge     Ge        0.147825747160566    0.315800926877124    0.296180771742617  0.0000
  Ge     Ge        0.353348460996309    0.640826529402821    0.282489786512786  0.0000
  Ge     Ge        0.824321761906282    0.254975989557766    0.719496827405609  0.0000
  Ge     Ge        0.669882034829796    0.722469700344283    0.723010835449359  0.0000
  Ge     Ge        0.172057175574322    0.716157391562128    0.292534933862566  0.0000
  Ge     Ge        0.646639362276716    0.314922944602438    0.032532412597766  0.0000
  Ge     Ge        0.850463951746982    0.631744687886493    0.044692855054869  0.0000
  Ge     Ge        0.320417479731002    0.237666475330355    0.970705456817970  0.0000
  Ge     Ge        0.165267614752183    0.717407539186060    0.971906585781539  0.0000
  Ge     Ge        0.346208106681983    0.639536652228379    0.963317794232521  0.0000
  Ge     Ge        0.140126135236856    0.311517857631554    0.975952321240248  0.0000
  Ge     Ge        0.672533318755256    0.720814434686354    0.043477748581226  0.0000
  Ge     Ge        0.825427902866865    0.228101246460286    0.038439748434396  0.0000
  Si     Si        0.049141698032620    0.005240723290263    0.856700239706690  0.0000
  Si     Si        0.846745106231920    0.647000512227801    0.728328311530210  0.0000
  Si     Si        0.647292484785265    0.330081477431780    0.717334449890203  0.0000
  Si     Si        0.325407851019117    0.245358437250277    0.283342683854469  0.0000
  O1     O1        0.088919181958418    0.199252475840318    0.392625645305376  0.0000
  O1     O1        0.417408537740580    0.753719023485864    0.374086641935559  0.0000
  O1     O1        0.869242377024105    0.111887609794562    0.619744987944477  0.0000
  O1     O1        0.620585548971420    0.866976384149771    0.625931452578298  0.0000
  O3     O3        0.907903967649199    0.757151716606920    0.652818271539866  0.0000
  O3     O3        0.587298512338246    0.221010754427893    0.634615582620173  0.0000
  O1     O1        0.125611551032805    0.854454604800895    0.393899422462635  0.0000
  O3     O3        0.367913049863943    0.100243457707951    0.370132809144210  0.0000
  O1     O1        0.972406687564571    0.956837459016870    0.456461616049211  0.0000
  O1     O1        0.470111923234178    0.985629611439329    0.563791719899789  0.0000
  O1     O1        0.026802241158294    0.985926041478871    0.206044672600504  0.0000
  O1     O1        0.523765030386046    0.010353301823547    0.317487688913134  0.0000
  O3     O3        0.020333599796277    0.006468185385774    0.705373573525383  0.0000
  O1     O1        0.523321465594705    0.997562780013437    0.816281513541118  0.0000
  O1     O1        0.577062684584984    0.208707206370288    0.109891173338465  0.0000
  O1     O1        0.919466856800155    0.737310568320614    0.128062263090402  0.0000
  O1     O1        0.371898994523657    0.097225797168895    0.880801284257271  0.0000
  O3     O3        0.119487706247802    0.873114760381268    0.876599393150709  0.0000
  O1     O1        0.408146590786693    0.753082829658469    0.870730154838932  0.0000
  O3     O3        0.072646380367260    0.197067767794495    0.891972826851375  0.0000
  O1     O1        0.626686745792558    0.863720988790938    0.141535252339394  0.0000
  O1     O1        0.877149926679551    0.083035213795191    0.130444910080639  0.0000
  O1     O1        0.473784962770619    0.945748416335100    0.067177096648893  0.0000
  O3     O3        0.978694142835837    0.949595563657941    0.943533524141608  0.0000
  O1     O1        0.157263011030389    0.514933361270800    0.357261256490169  0.0000
  O3     O3        0.342178437567038    0.433022150577975    0.340594125911627  0.0000
  O3     O3        0.839084739630155    0.461677061211247    0.662782750579373  0.0000
  O3     O3        0.654078804080373    0.519889683714599    0.659672538743144  0.0000
  O3     O3        0.235965779628940    0.213232762365709    0.284204037591809  0.0000
  O1     O1        0.267370167445295    0.748313504044699    0.289002396154896  0.0000
  O3     O3        0.727386306842018    0.226581934277909    0.716565654110589  0.0000
  O3     O3        0.766794391659764    0.752018114510907    0.722050713955032  0.0000
  O1     O1        0.112882542136131    0.329898404045814    0.136587332916131  0.0000
  O1     O1        0.381795266371981    0.628364453442780    0.123082976231982  0.0000
  O1     O1        0.855804302943691    0.217112349040194    0.877720595996507  0.0000
  O1     O1        0.640344782753009    0.745000410825237    0.882448605588366  0.0000
  O3     O3        0.871794957652605    0.610467875663081    0.878723543811830  0.0000
  O3     O3        0.621568815559064    0.348552537862813    0.868121153874171  0.0000
  O1     O1        0.136367360406788    0.728470330898195    0.132547758523150  0.0000
  O3     O3        0.353924690219180    0.235103135891146    0.133398023133823  0.0000
  O1     O1        0.658188315743493    0.513993781782789    0.096985200489386  0.0000
  O1     O1        0.839867872639367    0.429260295326504    0.102518876514978  0.0000
  O1     O1        0.333251045575596    0.439364199093927    0.905148544886751  0.0000
  O1     O1        0.147880207111814    0.515006588187951    0.913449650945033  0.0000
  O1     O1        0.729739044454098    0.195224164340047    0.042997057161741  0.0000
  O1     O1        0.768140537298732    0.752822839655533    0.051572281421429  0.0000
  O1     O1        0.225429775256484    0.201303246965266    0.966906565071436  0.0000
  O1     O1        0.260601403791627    0.750108449160003    0.967894957590410  0.0000
