data_c00449.vasp
_audit_creation_method             Generated by GULP
_audit_author_name                 Salvador R. G. Balestra
_symmetry_space_group_name_H-M     'P 1             '
_symmetry_Int_Tables_number        1

loop_
_symmetry_equiv_pos_site_id
_symmetry_equiv_pos_as_xyz
_cell_length_a                       17.6709
_cell_length_b                        7.8097
_cell_length_c                       10.2282
_cell_angle_alpha                   88.0720
_cell_angle_beta                    91.1309
_cell_angle_gamma                   90.6896

loop_
_atom_site_label
_atom_site_type_symbol
_atom_site_fract_x
_atom_site_fract_y
_atom_site_fract_z
_atom_site_charge
  Ge     Ge        0.052090000000021    0.000000000000000    0.372269999999958  0.0000
  Ge     Ge        0.443157369777070    0.046903555866097    0.396213880181299  0.0000
  Ge     Ge        0.944226662842207    0.071044473845169    0.618045023187641  0.0000
  Ge     Ge        0.548732674867668    0.023341920968695    0.654673828453198  0.0000
  Ge     Ge        0.551257577746761    0.011171887267862    0.154808324235692  0.0000
  Ge     Ge        0.949806583991942    0.065878003223392    0.111110279183625  0.0000
  Ge     Ge        0.443014315257981    0.080536559093062    0.904685104291165  0.0000
  Ge     Ge        0.171937460928910    0.283963365887152    0.286900263495543  0.0000
  Ge     Ge        0.326797948102400    0.754987671523280    0.290967496596294  0.0000
  Ge     Ge        0.850586786455259    0.385296180846693    0.725510947756264  0.0000
  Ge     Ge        0.822439476190998    0.785689631157595    0.723789959730405  0.0000
  Ge     Ge        0.669816379500243    0.311015770769071    0.724361355671811  0.0000
  Ge     Ge        0.146976379936800    0.687239675031134    0.298765895096340  0.0000
  Ge     Ge        0.671605010489906    0.297420496392564    0.040762530708510  0.0000
  Ge     Ge        0.823027502034399    0.786549751943610    0.041868582052769  0.0000
  Ge     Ge        0.340210440515970    0.389774738883479    0.956230172198943  0.0000
  Ge     Ge        0.321658952374157    0.788751934902783    0.977252834287717  0.0000
  Ge     Ge        0.160936505508950    0.318692056682442    0.968604016810263  0.0000
  Ge     Ge        0.644894895534498    0.704459425970631    0.033847686438482  0.0000
  Ge     Ge        0.850200989020454    0.383535695626505    0.044755431277454  0.0000
  Si     Si        0.049498312130791    0.026118309585215    0.864257048121951  0.0000
  Si     Si        0.646535735010966    0.707587850142732    0.721881319362501  0.0000
  Si     Si        0.346826346756252    0.358796286139740    0.271709722117790  0.0000
  Si     Si        0.143383770842098    0.718156721850761    0.989432278449152  0.0000
  O1     O1        0.128642426183241    0.136931974341329    0.387471831495279  0.0000
  O1     O1        0.376468814526543    0.887077027902644    0.391859241078519  0.0000
  O1     O1        0.917935294503805    0.276853648778545    0.643588191616728  0.0000
  O3     O3        0.586138779556742    0.820257958251543    0.638786285036870  0.0000
  O1     O1        0.865910213171910    0.941884389216407    0.631186929161981  0.0000
  O1     O1        0.617878123063804    0.176795635701598    0.628289513416477  0.0000
  O1     O1        0.084047760429136    0.793961960292613    0.391365670564438  0.0000
  O3     O3        0.411811200535446    0.246399394278406    0.341108211099492  0.0000
  O1     O1        0.976478419421703    0.052096721686992    0.461343578741183  0.0000
  O1     O1        0.471060348044992    0.059859770442036    0.557925190863250  0.0000
  O1     O1        0.025028590079990    0.021736364773299    0.208832647663675  0.0000
  O1     O1        0.523627272062881    0.998476148650051    0.314824945240045  0.0000
  O3     O3        0.021135174240621    0.007619089199911    0.715418172418385  0.0000
  O1     O1        0.518595530577818    0.034232921112514    0.814047635843479  0.0000
  O1     O1        0.626976440370112    0.149140881217779    0.139389185316264  0.0000
  O1     O1        0.875597118715049    0.923614072958275    0.133539447998505  0.0000
  O1     O1        0.406666013854922    0.282484060411178    0.874310972933485  0.0000
  O2     O2        0.085624117909461    0.844821610083744    0.911744467196395  0.0000
  O1     O1        0.366723429068889    0.942539158295250    0.885913548878523  0.0000
  O3     O3        0.108612229448325    0.183856667787205    0.871241020324863  0.0000
  O1     O1        0.574846999272998    0.808240828912421    0.109078909447842  0.0000
  O1     O1        0.916138352908570    0.268577965518673    0.133481563960828  0.0000
  O1     O1        0.473628087519351    0.078244669587017    0.065515512531048  0.0000
  O3     O3        0.976215342480040    0.063072131557654    0.947778838750678  0.0000
  O1     O1        0.155426597415964    0.480268460332303    0.352320474591757  0.0000
  O3     O3        0.338218415124511    0.540409729498970    0.339400794675455  0.0000
  O1     O1        0.840863204989227    0.589686937249583    0.660768529077050  0.0000
  O3     O3        0.657396915605387    0.521543116890525    0.664865190631059  0.0000
  O3     O3        0.268418507804332    0.250388951128547    0.280793445143928  0.0000
  O1     O1        0.232112947361326    0.795331250663109    0.301885480319102  0.0000
  O1     O1        0.765230614773549    0.275143386733848    0.719266637697868  0.0000
  O3     O3        0.725369136883095    0.814185933621721    0.723507547871443  0.0000
  O1     O1        0.136811104177986    0.280295270339163    0.128282552319632  0.0000
  O1     O1        0.357848831344487    0.796029230171559    0.134826727038976  0.0000
  O1     O1        0.878081449107310    0.409604292562245    0.884993717506146  0.0000
  O3     O3        0.620158882366207    0.679835077919893    0.870817537788653  0.0000
  O1     O1        0.853287150648667    0.800515964597212    0.882929982614582  0.0000
  O1     O1        0.638648563415569    0.281420421248950    0.881883689081668  0.0000
  O3     O3        0.115624212229142    0.683768084393596    0.136079418681464  0.0000
  O3     O3        0.364040415615094    0.403833274517466    0.121403098735503  0.0000
  O1     O1        0.656650581358703    0.500408328676190    0.096474095563366  0.0000
  O1     O1        0.836317618024321    0.580579488538525    0.105352494545695  0.0000
  O1     O1        0.335761337466428    0.598004568708525    0.902481469800378  0.0000
  O3     O3        0.147206664910290    0.534502380638825    0.923572729164316  0.0000
  O1     O1        0.767198259368866    0.264676053689992    0.041759349439885  0.0000
  O1     O1        0.727499947990169    0.823034107778491    0.046530223641683  0.0000
  O1     O1        0.254843654547946    0.282601039575658    0.945490255656145  0.0000
  O3     O3        0.224834855354959    0.812327479406604    0.991245241601308  0.0000
