data_c00482.vasp
_audit_creation_method             Generated by GULP
_audit_author_name                 Salvador R. G. Balestra
_symmetry_space_group_name_H-M     'P 1             '
_symmetry_Int_Tables_number        1

loop_
_symmetry_equiv_pos_site_id
_symmetry_equiv_pos_as_xyz
_cell_length_a                       17.6066
_cell_length_b                        7.8331
_cell_length_c                       10.2604
_cell_angle_alpha                   89.7842
_cell_angle_beta                    90.1489
_cell_angle_gamma                   91.2652

loop_
_atom_site_label
_atom_site_type_symbol
_atom_site_fract_x
_atom_site_fract_y
_atom_site_fract_z
_atom_site_charge
  Ge     Ge        0.052090000000021    0.000000000000000    0.372269999999958  0.0000
  Ge     Ge        0.441986316177674    0.049026249903569    0.367234112803248  0.0000
  Ge     Ge        0.946148717096112    0.050425096600238    0.625888761664009  0.0000
  Ge     Ge        0.545837368808931    0.995981458990961    0.619590019940796  0.0000
  Ge     Ge        0.553731053056530    0.995874349328480    0.127234520303170  0.0000
  Ge     Ge        0.947502178789806    0.055518016625129    0.117819441190649  0.0000
  Ge     Ge        0.444473423233840    0.048869138031965    0.879417892704064  0.0000
  Ge     Ge        0.171786622890131    0.284403981703249    0.256495160395630  0.0000
  Ge     Ge        0.324251470133140    0.752465401968618    0.254092591017951  0.0000
  Ge     Ge        0.644493839628812    0.681119288065870    0.684893094694295  0.0000
  Ge     Ge        0.825957122568637    0.755758802200287    0.688171710470281  0.0000
  Ge     Ge        0.670635382022417    0.280118008065287    0.692884456780727  0.0000
  Ge     Ge        0.142834285829830    0.683708650892826    0.258825782988621  0.0000
  Ge     Ge        0.674574098947425    0.280149616548672    0.009899273603803  0.0000
  Ge     Ge        0.825896298928520    0.770144442648806    0.004203133919515  0.0000
  Ge     Ge        0.345412779615188    0.363230181948366    0.939314480547805  0.0000
  Ge     Ge        0.146682965372072    0.692846619626248    0.941101958097838  0.0000
  Ge     Ge        0.163936622245410    0.291724372072198    0.940906027967467  0.0000
  Ge     Ge        0.645416703961988    0.684700784609245    0.003566177873112  0.0000
  Ge     Ge        0.853643627108880    0.367187321223055    0.001310931347195  0.0000
  Si     Si        0.048930840603122    0.998207479353140    0.873570855019744  0.0000
  Si     Si        0.847479928015175    0.361915336036519    0.690842551424263  0.0000
  Si     Si        0.349553513162033    0.355911876896495    0.247144693053627  0.0000
  Si     Si        0.325016425758168    0.760638059763864    0.946500542158015  0.0000
  O1     O1        0.131903620927554    0.125280844931776    0.347920468618863  0.0000
  O1     O1        0.373297709481512    0.893039734925052    0.349714077577344  0.0000
  O3     O3        0.907019798620744    0.250996855835056    0.611236286687489  0.0000
  O1     O1        0.579543064302735    0.794234482411623    0.596836227516159  0.0000
  O1     O1        0.878677029153979    0.894507272923541    0.593613743546722  0.0000
  O1     O1        0.622416934032070    0.134980753038680    0.599811274664023  0.0000
  O1     O1        0.075838724162709    0.792062543343639    0.343891215245087  0.0000
  O3     O3        0.409851231939536    0.250347564081745    0.330162756916315  0.0000
  O1     O1        0.023772405224551    0.028020398360336    0.530680437358212  0.0000
  O1     O1        0.468828228628729    0.047607590900457    0.529216552695189  0.0000
  O1     O1        0.976576658379751    0.057941413460181    0.277090961898535  0.0000
  O1     O1        0.523900966822533    0.002246233997082    0.286534136677006  0.0000
  O3     O3        0.975252377204765    0.026930107329056    0.787332547973374  0.0000
  O1     O1        0.518818472056888    0.007712811527676    0.781759976884050  0.0000
  O1     O1        0.630251108524871    0.132419333650305    0.107310326961953  0.0000
  O1     O1        0.871094599169036    0.918499851800842    0.100208278816182  0.0000
  O1     O1        0.407171356990376    0.247827185730657    0.849731881589704  0.0000
  O3     O3        0.088047244481144    0.817568196173774    0.847220528678916  0.0000
  O3     O3        0.371669388247806    0.896052927623891    0.860563223777002  0.0000
  O3     O3        0.111348071312620    0.148079255765922    0.849323956024674  0.0000
  O1     O1        0.578650258537664    0.790792390327386    0.090203022965867  0.0000
  O1     O1        0.924608406093111    0.261309186619775    0.077429079822256  0.0000
  O1     O1        0.476543358593627    0.055002472460452    0.037420661887819  0.0000
  O3     O3        0.023873884697216    0.992719582692898    0.025071956285649  0.0000
  O1     O1        0.152403546663593    0.481268781794747    0.320256028468629  0.0000
  O3     O3        0.339237081590388    0.543797202308280    0.305649945499072  0.0000
  O3     O3        0.836634090787602    0.548217619167493    0.629602907873586  0.0000
  O1     O1        0.652985256974254    0.478533818377425    0.627949400902404  0.0000
  O3     O3        0.268737313457195    0.254890904672569    0.248858712819149  0.0000
  O1     O1        0.229532687156491    0.790171606819577    0.265317142095162  0.0000
  O3     O3        0.768175782155966    0.253910430123702    0.693915869553611  0.0000
  O1     O1        0.730561187685699    0.791831703876452    0.681271704098910  0.0000
  O1     O1        0.135583548538065    0.277021565665752    0.100738199753582  0.0000
  O3     O3        0.355770903491553    0.773326946358222    0.094814343640446  0.0000
  O3     O3        0.875890956882691    0.393002847335422    0.837942867333736  0.0000
  O1     O1        0.616120734168717    0.664035527126108    0.844820931323269  0.0000
  O1     O1        0.856691866858919    0.783771715336801    0.845750490738614  0.0000
  O1     O1        0.641182568816829    0.262785400245234    0.852436229826443  0.0000
  O1     O1        0.115667734004093    0.668363271526684    0.098275993624667  0.0000
  O3     O3        0.377578255404679    0.372017002935596    0.099134752912933  0.0000
  O1     O1        0.658865537914349    0.483979789808034    0.065201023316277  0.0000
  O1     O1        0.843344885909642    0.567569152351357    0.063116532066442  0.0000
  O3     O3        0.336861564994396    0.571611095778899    0.887758799470972  0.0000
  O1     O1        0.150266305927960    0.493013276908500    0.877176363648561  0.0000
  O1     O1        0.770702649936666    0.248841190947244    0.013934315979830  0.0000
  O1     O1        0.729768441867094    0.800489442986589    0.006558748152484  0.0000
  O1     O1        0.259304258085034    0.256806597120586    0.933431819185127  0.0000
  O3     O3        0.235456987429852    0.794264034958517    0.947709399581246  0.0000
