data_c00467.vasp
_audit_creation_method             Generated by GULP
_audit_author_name                 Salvador R. G. Balestra
_symmetry_space_group_name_H-M     'P 1             '
_symmetry_Int_Tables_number        1

loop_
_symmetry_equiv_pos_site_id
_symmetry_equiv_pos_as_xyz
_cell_length_a                       17.6224
_cell_length_b                        7.8019
_cell_length_c                       10.2112
_cell_angle_alpha                   90.3712
_cell_angle_beta                    90.6633
_cell_angle_gamma                   91.3877

loop_
_atom_site_label
_atom_site_type_symbol
_atom_site_fract_x
_atom_site_fract_y
_atom_site_fract_z
_atom_site_charge
  Ge     Ge        0.052090000000021    0.000000000000000    0.372269999999958  0.0000
  Ge     Ge        0.444049554715225    0.053948335523470    0.329759235848412  0.0000
  Ge     Ge        0.942517234488162    0.041525425695667    0.619124255580248  0.0000
  Ge     Ge        0.551584998575729    0.995586815830374    0.577173453809487  0.0000
  Ge     Ge        0.539265035481116    0.984845724739090    0.068432980322897  0.0000
  Ge     Ge        0.939918647473691    0.048080546073162    0.124736057740993  0.0000
  Ge     Ge        0.434414018035916    0.043050284721844    0.811583924253226  0.0000
  Ge     Ge        0.166784909658084    0.294860294936278    0.262188756216704  0.0000
  Ge     Ge        0.320211661275785    0.772042914435518    0.249102976704038  0.0000
  Ge     Ge        0.843368536429506    0.359113398865667    0.682710364748403  0.0000
  Ge     Ge        0.818753557101397    0.757957946264422    0.690837227128356  0.0000
  Ge     Ge        0.348193026136336    0.368704991584005    0.256297732393598  0.0000
  Ge     Ge        0.666487632117765    0.267723877683082    0.998519040941763  0.0000
  Ge     Ge        0.817877006937146    0.761317855042602    0.009130903163258  0.0000
  Ge     Ge        0.339226898506761    0.350789461887528    0.938464269188447  0.0000
  Ge     Ge        0.135508334752638    0.676218567974680    0.938985768325588  0.0000
  Ge     Ge        0.314403386940631    0.759364937076509    0.931077737614752  0.0000
  Ge     Ge        0.157756231133662    0.270527837825445    0.947467457191278  0.0000
  Ge     Ge        0.639065547336581    0.675476978688656    0.005339589371464  0.0000
  Ge     Ge        0.845248255941561    0.355550167947472    0.002891262728144  0.0000
  Si     Si        0.038739807297424    0.982670156676623    0.875726804548552  0.0000
  Si     Si        0.640733145044595    0.683275866051318    0.696368821771204  0.0000
  Si     Si        0.665307676988173    0.288471426000337    0.689124938991785  0.0000
  Si     Si        0.143585889504881    0.690993571517301    0.250290628804830  0.0000
  O1     O1        0.121265411629609    0.156882961256732    0.366203455499796  0.0000
  O1     O1        0.366573672819017    0.916803880646414    0.348259126989337  0.0000
  O1     O1        0.907286489770350    0.242482602843674    0.596560765303153  0.0000
  O3     O3        0.583361772081572    0.791362170423100    0.607920787726620  0.0000
  O1     O1        0.865367397916600    0.904661994025126    0.596821764319027  0.0000
  O3     O3        0.619944702755222    0.156610315998634    0.595218059089372  0.0000
  O3     O3        0.083646119246195    0.799050709960615    0.330830680616564  0.0000
  O1     O1        0.412858414384948    0.258946263610583    0.348792463880363  0.0000
  O1     O1        0.020118966839698    0.993687873089690    0.531346404606043  0.0000
  O1     O1        0.523547292673075    0.002342888248166    0.414512188299773  0.0000
  O1     O1        0.972542844034396    0.048093411079490    0.283190404412656  0.0000
  O1     O1        0.465654954218294    0.031094477731449    0.164931833460426  0.0000
  O3     O3        0.968145768673942    0.022995175849982    0.784456280568729  0.0000
  O1     O1        0.468078783520347    0.037140998898465    0.653999882980165  0.0000
  O1     O1        0.614955220152595    0.128179932413078    0.089612976674694  0.0000
  O1     O1        0.864377467668205    0.907125877385191    0.108032534144531  0.0000
  O1     O1        0.402524607009551    0.244951203088991    0.844367337787793  0.0000
  O3     O3        0.068576495012606    0.790738474864568    0.853314929641114  0.0000
  O1     O1        0.360319947797463    0.898279189896275    0.829312340360948  0.0000
  O3     O3        0.107117672450535    0.121166820310230    0.854685883334304  0.0000
  O1     O1        0.572364045002049    0.781030376487721    0.092440679832152  0.0000
  O1     O1        0.913343897463407    0.252938458937113    0.090020762964185  0.0000
  O1     O1        0.510872602001860    0.994983269618675    0.906975554657898  0.0000
  O3     O3        0.014556853046409    0.990001256576097    0.027453794225258  0.0000
  O3     O3        0.156513046077209    0.506308669684207    0.314550398971642  0.0000
  O1     O1        0.339763311688144    0.573038745796695    0.311714166386178  0.0000
  O1     O1        0.837576145432191    0.560981259867078    0.623047638269143  0.0000
  O2     O2        0.651753574663716    0.486908818349120    0.645762452209047  0.0000
  O1     O1        0.261941287238723    0.258756673671495    0.260126013201904  0.0000
  O3     O3        0.222800209476729    0.799426833393210    0.247391909905378  0.0000
  O3     O3        0.754510352335366    0.255539070182319    0.681963617458790  0.0000
  O3     O3        0.721466945945969    0.783381475799167    0.692814597323158  0.0000
  O1     O1        0.129139023962623    0.261121068872006    0.108056226285731  0.0000
  O1     O1        0.349360948107772    0.783836119950406    0.088610731057268  0.0000
  O1     O1        0.872735088141060    0.374766937943647    0.843169118377485  0.0000
  O3     O3        0.609250742097656    0.672770091267298    0.841743488251291  0.0000
  O1     O1        0.849609933753100    0.774483522193217    0.850840757949476  0.0000
  O3     O3        0.635943547061199    0.258579186261872    0.835605579985856  0.0000
  O3     O3        0.113479100228058    0.655232429055593    0.103604465514276  0.0000
  O1     O1        0.375140620074667    0.373216591045624    0.094795335621502  0.0000
  O1     O1        0.650947549410674    0.472347703006862    0.057724420339477  0.0000
  O1     O1        0.831548040919117    0.555887925602806    0.065345371983697  0.0000
  O1     O1        0.324967464794655    0.551391120499099    0.877868416922392  0.0000
  O1     O1        0.141361588478227    0.471245779723952    0.882328887783208  0.0000
  O1     O1        0.761726205733438    0.234324029375626    0.006856309622957  0.0000
  O1     O1        0.722252937923667    0.794979006572880    0.012362067326001  0.0000
  O1     O1        0.253563196911624    0.238193069241178    0.942988792802627  0.0000
  O1     O1        0.218729708979641    0.793102886437359    0.929232678996947  0.0000
