data_c00427.vasp
_audit_creation_method             Generated by GULP
_audit_author_name                 Salvador R. G. Balestra
_symmetry_space_group_name_H-M     'P 1             '
_symmetry_Int_Tables_number        1

loop_
_symmetry_equiv_pos_site_id
_symmetry_equiv_pos_as_xyz
_cell_length_a                       17.7900
_cell_length_b                        7.8655
_cell_length_c                       10.3830
_cell_angle_alpha                   90.2411
_cell_angle_beta                    89.7268
_cell_angle_gamma                   89.6415

loop_
_atom_site_label
_atom_site_type_symbol
_atom_site_fract_x
_atom_site_fract_y
_atom_site_fract_z
_atom_site_charge
  Ge     Ge        0.052090000000021    0.000000000000000    0.372269999999958  0.0000
  Ge     Ge        0.445416307061603    0.027732911121768    0.363465857945521  0.0000
  Ge     Ge        0.947537507201710    0.991756930680257    0.629215092705881  0.0000
  Ge     Ge        0.550583983048883    0.024604193986016    0.615634595262100  0.0000
  Ge     Ge        0.552278932134567    0.023280196668022    0.114996074174335  0.0000
  Ge     Ge        0.940392555787098    0.999146734271739    0.127602926683323  0.0000
  Ge     Ge        0.443966564706109    0.015454846344213    0.868819687996996  0.0000
  Ge     Ge        0.165526967660979    0.294153665515660    0.262518468424175  0.0000
  Ge     Ge        0.325798599058559    0.743536268378057    0.248665070452382  0.0000
  Ge     Ge        0.830835546516338    0.285682571408881    0.698036838839751  0.0000
  Ge     Ge        0.671213397296792    0.741278908782610    0.693037458331986  0.0000
  Ge     Ge        0.649561688079079    0.337872315988508    0.688999369682396  0.0000
  Ge     Ge        0.346055172594535    0.339592114034778    0.256744027656441  0.0000
  Ge     Ge        0.644149988170036    0.342087901933403    0.000373432927806  0.0000
  Ge     Ge        0.843982656135607    0.687359416004529    0.008699234815349  0.0000
  Ge     Ge        0.340568947966605    0.329162526327714    0.941592677882585  0.0000
  Ge     Ge        0.143424665845963    0.689296086072990    0.947596552877400  0.0000
  Ge     Ge        0.322971009088579    0.734442425205007    0.935337372426728  0.0000
  Ge     Ge        0.159812139640032    0.282079467055377    0.950788175556078  0.0000
  Ge     Ge        0.825275027497631    0.282747543597571    0.008864358221335  0.0000
  Si     Si        0.044749940111438    0.002465247162479    0.882286450430045  0.0000
  Si     Si        0.846884789097700    0.685849353940448    0.701557883274470  0.0000
  Si     Si        0.149728189648684    0.693515118829141    0.253668964240449  0.0000
  Si     Si        0.667419373638690    0.740523960071688    0.999710299197934  0.0000
  O1     O1        0.113958204431632    0.165060127819665    0.360328666342098  0.0000
  O1     O1        0.371864683543932    0.892847094962596    0.336332385776836  0.0000
  O1     O1        0.883474883044441    0.152721332648003    0.602351403006672  0.0000
  O1     O1        0.623107345617222    0.879266847650506    0.598448426351684  0.0000
  O3     O3        0.904648634203148    0.795034674595899    0.617763201946264  0.0000
  O1     O1        0.589104146658586    0.221946429939202    0.595613129577571  0.0000
  O3     O3        0.092785057824166    0.805172885150315    0.337907835144052  0.0000
  O1     O1        0.412390343198717    0.230873081609384    0.342538365311659  0.0000
  O1     O1        0.023383056058212    0.997344929894493    0.530599736511927  0.0000
  O1     O1        0.474576149010879    0.997138668401855    0.519593750846662  0.0000
  O1     O1        0.972420402497977    0.022715969459937    0.281748515731211  0.0000
  O1     O1        0.524479238262871    0.993290326331172    0.271627434516677  0.0000
  O3     O3        0.976338643687562    0.025570903934225    0.786890097144094  0.0000
  O1     O1        0.520324530270562    0.995042347543505    0.772082807426534  0.0000
  O1     O1        0.582949660621524    0.228546910203877    0.093012385318099  0.0000
  O1     O1        0.905976812543458    0.798857261631267    0.099107075267091  0.0000
  O1     O1        0.401780016794969    0.211450458406056    0.850475492921989  0.0000
  O3     O3        0.078324243153674    0.812175037613434    0.867734163380541  0.0000
  O1     O1        0.375788487958539    0.864871903001054    0.841474742164475  0.0000
  O3     O3        0.110189071640748    0.139676844780089    0.857968493583751  0.0000
  O3     O3        0.623513835181003    0.879122099650709    0.083678781344846  0.0000
  O1     O1        0.868343021334545    0.141334835627507    0.108207333109420  0.0000
  O1     O1        0.473532833391013    0.989879547575855    0.025278736454773  0.0000
  O3     O3        0.016257185453306    0.036907323216234    0.027766795315756  0.0000
  O3     O3        0.158716334306519    0.505949264468227    0.311755739072769  0.0000
  O1     O1        0.341630563752116    0.545178647508169    0.311684814438606  0.0000
  O3     O3        0.840145252994181    0.495761618398681    0.647614362590722  0.0000
  O1     O1        0.655804719872462    0.540538433064929    0.633313696560725  0.0000
  O1     O1        0.259344664306695    0.244121624807738    0.268533110728838  0.0000
  O3     O3        0.230072160225007    0.786631173054223    0.249494937794533  0.0000
  O1     O1        0.736730668414618    0.241099400165098    0.689870164567710  0.0000
  O3     O3        0.766373713385860    0.781524783794068    0.694371786060634  0.0000
  O1     O1        0.131938743218578    0.273862987480049    0.109275627226688  0.0000
  O1     O1        0.355002263340786    0.745494468662997    0.091458432170715  0.0000
  O1     O1        0.859678371133437    0.265495693302765    0.854642547297674  0.0000
  O3     O3        0.640493412327924    0.747703894233811    0.852039491749185  0.0000
  O3     O3        0.873662313294350    0.680436842568447    0.849457980707975  0.0000
  O1     O1        0.613932533251379    0.337545097118276    0.843907438841997  0.0000
  O3     O3        0.118433750244574    0.678644214649095    0.108966911651281  0.0000
  O1     O1        0.372770645129519    0.339224711723303    0.097396897652745  0.0000
  O3     O3        0.651456902928121    0.551154200821364    0.052578220746679  0.0000
  O1     O1        0.840311465730042    0.485380496305138    0.066207377599252  0.0000
  O1     O1        0.331627694284927    0.528758654438201    0.879854518049941  0.0000
  O1     O1        0.146139843336563    0.484944276898494    0.891398463938357  0.0000
  O1     O1        0.730648428135449    0.246208990045146    0.005961087774306  0.0000
  O3     O3        0.755537736968412    0.780545363318575    0.009677659174148  0.0000
  O1     O1        0.253680918437224    0.233493222714920    0.945229236010965  0.0000
  O1     O1        0.229149877879272    0.785472562580474    0.932461267343514  0.0000
