data_c00414.vasp
_audit_creation_method             Generated by GULP
_audit_author_name                 Salvador R. G. Balestra
_symmetry_space_group_name_H-M     'P 1             '
_symmetry_Int_Tables_number        1

loop_
_symmetry_equiv_pos_site_id
_symmetry_equiv_pos_as_xyz
_cell_length_a                       17.7719
_cell_length_b                        7.7863
_cell_length_c                       10.1365
_cell_angle_alpha                   87.5882
_cell_angle_beta                    89.8683
_cell_angle_gamma                   89.3820

loop_
_atom_site_label
_atom_site_type_symbol
_atom_site_fract_x
_atom_site_fract_y
_atom_site_fract_z
_atom_site_charge
  Ge     Ge        0.052090000000021    0.000000000000000    0.372269999999958  0.0000
  Ge     Ge        0.453157526189772    0.965065445704769    0.356511988445416  0.0000
  Ge     Ge        0.949132440756194    0.974837017292981    0.629990966137823  0.0000
  Ge     Ge        0.556153497512724    0.034326023953563    0.606243497485675  0.0000
  Ge     Ge        0.555385665402604    0.007391795926309    0.096559517636515  0.0000
  Ge     Ge        0.957659447373635    0.945814586952623    0.100297458938535  0.0000
  Ge     Ge        0.444400014301133    0.980975058118450    0.849686428988644  0.0000
  Ge     Ge        0.149089448476574    0.321196107643715    0.291701365089050  0.0000
  Ge     Ge        0.353495266897249    0.652727715761798    0.289640119369919  0.0000
  Ge     Ge        0.833750234627825    0.271999982092695    0.717873487264380  0.0000
  Ge     Ge        0.680336797649849    0.748565385121778    0.723035114945775  0.0000
  Ge     Ge        0.652246056478265    0.341143408172256    0.719289166803696  0.0000
  Ge     Ge        0.176085181108999    0.729009014025111    0.291880938849043  0.0000
  Ge     Ge        0.327614522732952    0.244948007036117    0.288158813980485  0.0000
  Ge     Ge        0.849587031886602    0.633199668587707    0.057056354181962  0.0000
  Ge     Ge        0.329177437201508    0.269601866961212    0.968786662999078  0.0000
  Ge     Ge        0.175276697231330    0.745453124218434    0.970746309715314  0.0000
  Ge     Ge        0.149302987696150    0.339927633860662    0.970020878007851  0.0000
  Ge     Ge        0.678165682749151    0.716265234014797    0.050519305413025  0.0000
  Ge     Ge        0.834269148906233    0.236386920826840    0.034412757200834  0.0000
  Si     Si        0.062304849090332    0.033950749893187    0.852685351002626  0.0000
  Si     Si        0.849614160917490    0.662574147215926    0.734194443361913  0.0000
  Si     Si        0.658853221396932    0.314304420048954    0.032087121776959  0.0000
  Si     Si        0.350747109821036    0.669337861468819    0.975031795356305  0.0000
  O1     O1        0.084731392470283    0.205774770893386    0.384219418017916  0.0000
  O1     O1        0.420470109685227    0.757885311011956    0.375138906255596  0.0000
  O1     O1        0.882042104290147    0.131772445950697    0.621259194868574  0.0000
  O1     O1        0.633888334104781    0.908200177109350    0.637129381883588  0.0000
  O3     O3        0.920965543187247    0.779630881066077    0.701964780146799  0.0000
  O1     O1        0.583151931847354    0.240588745555243    0.635410058265705  0.0000
  O1     O1        0.126683876482663    0.858732205635421    0.392650590509754  0.0000
  O1     O1        0.379146733750454    0.103286528463063    0.384881564937153  0.0000
  O1     O1        0.977025123020595    0.947552617969263    0.468817668921963  0.0000
  O1     O1        0.531563707385646    0.009399797521276    0.443790262617942  0.0000
  O1     O1        0.026591048831117    0.982379952205060    0.208170627297936  0.0000
  O1     O1        0.477214185153912    0.994047878856325    0.191590481295754  0.0000
  O3     O3        0.033209154198697    0.031766476449869    0.703020370653930  0.0000
  O1     O1        0.474873710272205    0.978404161449473    0.688665971128342  0.0000
  O3     O3        0.602534849440060    0.198793261850252    0.119296852791800  0.0000
  O1     O1        0.926790894291448    0.735414842985172    0.109474550297167  0.0000
  O1     O1        0.377955402556202    0.139567196386313    0.866299060387315  0.0000
  O3     O3        0.134444505547461    0.909487761726037    0.875756678369365  0.0000
  O3     O3        0.410881117208406    0.778003424197227    0.890855690918489  0.0000
  O3     O3        0.083701168295730    0.227992030460058    0.883388626781189  0.0000
  O1     O1        0.615674087768501    0.837212898847077    0.135161294299941  0.0000
  O1     O1        0.879923183765039    0.074619050669923    0.121665584763500  0.0000
  O1     O1        0.525693362489165    0.012761346453955    0.935131310448874  0.0000
  O3     O3        0.991996955029959    0.970170702394679    0.940793375107909  0.0000
  O1     O1        0.163737664243576    0.519297564919296    0.350515015162859  0.0000
  O1     O1        0.341084921545008    0.447291297681651    0.347944445695442  0.0000
  O3     O3        0.853014935733025    0.482614455809232    0.662318356639199  0.0000
  O1     O1        0.656406639303772    0.552237439729738    0.665727324277426  0.0000
  O1     O1        0.233056556653941    0.205966142682051    0.289924507149469  0.0000
  O1     O1        0.270665271541170    0.769483427493636    0.295188662216067  0.0000
  O1     O1        0.738670484223054    0.242393804886177    0.703485834484990  0.0000
  O3     O3        0.776131284611989    0.775231042191497    0.694010479914169  0.0000
  O1     O1        0.119442698244077    0.347194409598601    0.130420331205713  0.0000
  O3     O3        0.379386613635377    0.641919674717445    0.124547055554007  0.0000
  O1     O1        0.866339426490097    0.224841426365545    0.874302059160396  0.0000
  O1     O1        0.659539075412552    0.765747057935177    0.887130765767849  0.0000
  O3     O3        0.839474278399164    0.603024588801694    0.887739526517242  0.0000
  O3     O3        0.627193673507178    0.343739130999189    0.884366947196840  0.0000
  O1     O1        0.144406066679911    0.751110835878678    0.130659811438989  0.0000
  O1     O1        0.359763532560351    0.236278310530460    0.127441071988787  0.0000
  O3     O3        0.670185389770817    0.497921620996025    0.093025694737266  0.0000
  O1     O1        0.853414517787437    0.422914259000216    0.112629420144935  0.0000
  O3     O3        0.340021153614897    0.483733714322173    0.915553707460055  0.0000
  O1     O1        0.155424157714805    0.548593809623230    0.908897885574156  0.0000
  O3     O3        0.737957224343200    0.210254203673818    0.024950874595201  0.0000
  O1     O1        0.770119407954954    0.750671238709478    0.092839568246203  0.0000
  O1     O1        0.234271609429908    0.233894466715201    0.963348434125016  0.0000
  O3     O3        0.271737676384375    0.773826366688252    0.972533544375320  0.0000
