data_c00451.vasp
_audit_creation_method             Generated by GULP
_audit_author_name                 Salvador R. G. Balestra
_symmetry_space_group_name_H-M     'P 1             '
_symmetry_Int_Tables_number        1

loop_
_symmetry_equiv_pos_site_id
_symmetry_equiv_pos_as_xyz
_cell_length_a                       17.0086
_cell_length_b                        7.8327
_cell_length_c                       10.6671
_cell_angle_alpha                   85.2495
_cell_angle_beta                    91.6376
_cell_angle_gamma                   89.0762

loop_
_atom_site_label
_atom_site_type_symbol
_atom_site_fract_x
_atom_site_fract_y
_atom_site_fract_z
_atom_site_charge
  Ge     Ge        0.052090000000021    0.000000000000000    0.372269999999958  0.0000
  Ge     Ge        0.456655730550702    0.033999621682788    0.362618709486764  0.0000
  Ge     Ge        0.953783819692699    0.059998810763743    0.624105217463264  0.0000
  Ge     Ge        0.537904439967869    0.108357233156547    0.633634884512846  0.0000
  Ge     Ge        0.572341827985950    0.067058654225272    0.138220445545722  0.0000
  Ge     Ge        0.948345031228369    0.027072399929055    0.109120770571716  0.0000
  Ge     Ge        0.446569534522682    0.120954713680236    0.899684353436186  0.0000
  Ge     Ge        0.177557031657600    0.291130143169442    0.252063251769242  0.0000
  Ge     Ge        0.346178120562799    0.733633008576989    0.302739701531701  0.0000
  Ge     Ge        0.830204727730416    0.335996559664726    0.700108200371376  0.0000
  Ge     Ge        0.845002996150709    0.738854172556812    0.692618600671596  0.0000
  Ge     Ge        0.642450434192384    0.402824210384196    0.731171993399979  0.0000
  Ge     Ge        0.150336108335103    0.698851608788451    0.292743134312792  0.0000
  Ge     Ge        0.644234415089396    0.409486771871053    0.022081644202195  0.0000
  Ge     Ge        0.350839194931620    0.457446649897907    0.955075162608494  0.0000
  Ge     Ge        0.143299612544693    0.770277837092934    0.999142854117258  0.0000
  Ge     Ge        0.339641931475403    0.829904205984690    0.005946296011643  0.0000
  Ge     Ge        0.170601046103215    0.381298610738422    0.949200512229442  0.0000
  Ge     Ge        0.686142082346052    0.803826394639041    0.015969574794299  0.0000
  Ge     Ge        0.841347556263624    0.335352544600684    0.999296566957374  0.0000
  Si     Si        0.057262591362175    0.102709418517457    0.879654836888854  0.0000
  Si     Si        0.669780603746405    0.823528353183776    0.715623349784900  0.0000
  Si     Si        0.353667226378165    0.356308062968787    0.257414689883214  0.0000
  Si     Si        0.865738213938648    0.710015179290680    0.004235930858193  0.0000
  O1     O1        0.129246106164427    0.124182191965366    0.323339789579684  0.0000
  O1     O1        0.398350722475632    0.862505349695341    0.398071723001610  0.0000
  O1     O1        0.875185607210333    0.200265552836012    0.604545117264184  0.0000
  O3     O3        0.607392568497834    0.942307379946136    0.632815831019665  0.0000
  O1     O1        0.919976644199600    0.853665671908347    0.629404485499197  0.0000
  O1     O1        0.577808087476725    0.307776195143878    0.634160823578555  0.0000
  O1     O1        0.091085028450282    0.794942792305361    0.395448412022594  0.0000
  O3     O3        0.418089335094731    0.206693252896444    0.261311626773802  0.0000
  O1     O1        0.019831827066772    0.079252315765717    0.507502768482928  0.0000
  O1     O1        0.479062404410842    0.114828427607535    0.502086343186747  0.0000
  O1     O1        0.974164366347187    0.006866331358307    0.264699251684375  0.0000
  O1     O1        0.539830949146663    0.991154934372553    0.281826088345000  0.0000
  O3     O3        0.993552323976857    0.102057495357201    0.768515376956000  0.0000
  O1     O1        0.479080700705684    0.066956262633990    0.759839179663797  0.0000
  O1     O1        0.599974860991728    0.280468680497564    0.133984333675083  0.0000
  O3     O3        0.935052834697702    0.832506317126655    0.043463808849260  0.0000
  O1     O1        0.427018797454365    0.334233394479313    0.908914784693846  0.0000
  O3     O3        0.105816925898756    0.922337907182610    0.888514367566150  0.0000
  O1     O1        0.356567456164065    0.021078422323490    0.926783055197312  0.0000
  O3     O3        0.116859934893060    0.256145695185788    0.851888189935530  0.0000
  O1     O1        0.657579650056188    0.960214791320893    0.106878721860745  0.0000
  O1     O1        0.866144625694051    0.158580957762060    0.097210231367943  0.0000
  O1     O1        0.506079611747755    0.028967468862754    0.019887396522999  0.0000
  O3     O3        0.017795607921750    0.127666778949846    0.013821326938409  0.0000
  O1     O1        0.135857875823994    0.484589497608036    0.283551347493022  0.0000
  O3     O3        0.379825275306134    0.522168882199077    0.327824489579362  0.0000
  O1     O1        0.846186913282430    0.541872040323219    0.636618984275208  0.0000
  O3     O3        0.650374588178172    0.622132140736284    0.712225006889218  0.0000
  O3     O3        0.273585751053490    0.280145685354576    0.314461871466412  0.0000
  O1     O1        0.247386297167844    0.735856132248997    0.328949321439736  0.0000
  O1     O1        0.730802862751982    0.305360177147904    0.705953778493531  0.0000
  O3     O3        0.755987633354616    0.848516660187815    0.659860133071746  0.0000
  O1     O1        0.179119664756630    0.266960434849463    0.094170238702405  0.0000
  O1     O1        0.370471654079949    0.835778610284951    0.160690057050438  0.0000
  O1     O1        0.868610084746176    0.296610976632041    0.850878140171936  0.0000
  O3     O3        0.669917723398305    0.875553503756219    0.858663327238866  0.0000
  O3     O3        0.850663216119781    0.703948680087247    0.854539674103545  0.0000
  O1     O1        0.605739622116553    0.354728154499093    0.879008499572653  0.0000
  O1     O1        0.116829574564325    0.802685126153685    0.149683316307240  0.0000
  O3     O3        0.331224890333220    0.435059999365301    0.115768178364924  0.0000
  O1     O1        0.633142120772935    0.621048470169920    0.049647096136281  0.0000
  O3     O3        0.886642894799496    0.515767936643958    0.054299334204078  0.0000
  O1     O1        0.382083470608329    0.663566511622128    0.932187611582095  0.0000
  O1     O1        0.119408040498594    0.569899021543887    0.957641496358853  0.0000
  O1     O1        0.743371686176753    0.388158093707062    0.995819264755987  0.0000
  O3     O3        0.784956665238839    0.778719679291954    0.058447477804752  0.0000
  O1     O1        0.261941013007479    0.412778514081607    0.885515119548248  0.0000
  O1     O1        0.244128283596739    0.761142569967382    0.010281319593579  0.0000
