data_c00448.vasp
_audit_creation_method             Generated by GULP
_audit_author_name                 Salvador R. G. Balestra
_symmetry_space_group_name_H-M     'P 1             '
_symmetry_Int_Tables_number        1

loop_
_symmetry_equiv_pos_site_id
_symmetry_equiv_pos_as_xyz
_cell_length_a                       17.5882
_cell_length_b                        7.8346
_cell_length_c                       10.2574
_cell_angle_alpha                   88.9222
_cell_angle_beta                    91.4540
_cell_angle_gamma                   88.1726

loop_
_atom_site_label
_atom_site_type_symbol
_atom_site_fract_x
_atom_site_fract_y
_atom_site_fract_z
_atom_site_charge
  Ge     Ge        0.052090000000021    0.000000000000000    0.372269999999958  0.0000
  Ge     Ge        0.443020245141237    0.948007092551773    0.357451319326503  0.0000
  Ge     Ge        0.943289155671607    0.959773551773030    0.618739142618361  0.0000
  Ge     Ge        0.542145028560488    0.003843432986665    0.618942745862921  0.0000
  Ge     Ge        0.548248153142449    0.016699082120140    0.117214881203599  0.0000
  Ge     Ge        0.941648951708804    0.951496055275850    0.120294579081900  0.0000
  Ge     Ge        0.435763552374830    0.962774984449988    0.871358906765539  0.0000
  Ge     Ge        0.145893422859647    0.314543991650938    0.251021600187505  0.0000
  Ge     Ge        0.350701191782933    0.634463988054380    0.243553816768981  0.0000
  Ge     Ge        0.819874546196659    0.244724424001332    0.689133870968318  0.0000
  Ge     Ge        0.843086873080318    0.644313531248677    0.680067646975398  0.0000
  Ge     Ge        0.637438483674900    0.324045987981874    0.687296492577002  0.0000
  Ge     Ge        0.170015689629704    0.713462691827238    0.262646673445350  0.0000
  Ge     Ge        0.637751408549634    0.329522776265903    0.000990990595498  0.0000
  Ge     Ge        0.849496207824997    0.642694552416643    0.999462347962209  0.0000
  Ge     Ge        0.317062319619926    0.262745965751083    0.929591994510241  0.0000
  Ge     Ge        0.157327035964589    0.732040005199253    0.947522327411139  0.0000
  Ge     Ge        0.136038129485820    0.333044574908099    0.931063108962673  0.0000
  Ge     Ge        0.669563577406255    0.731062442076972    0.994982357022554  0.0000
  Ge     Ge        0.819967583806684    0.241551795297868    0.005364006836005  0.0000
  Si     Si        0.039765692864017    0.025983907943372    0.874694915058021  0.0000
  Si     Si        0.665441033316242    0.718380940222104    0.682740913125360  0.0000
  Si     Si        0.323667621103781    0.238761302445079    0.239695944584369  0.0000
  Si     Si        0.336260823670350    0.657360934557432    0.936528001694738  0.0000
  O1     O1        0.081507811598816    0.201077717943870    0.334729215578003  0.0000
  O1     O1        0.418446831335217    0.741046211238305    0.328280546499343  0.0000
  O1     O1        0.868471212907441    0.103709665625868    0.594448249985562  0.0000
  O3     O3        0.616343271258176    0.855535702847475    0.596500834998656  0.0000
  O1     O1        0.907137999795726    0.761256277261317    0.596344598204790  0.0000
  O1     O1        0.575633555368092    0.205857329682641    0.596606773221487  0.0000
  O1     O1        0.127130679624643    0.857870663702180    0.361970670443112  0.0000
  O3     O3        0.368265903010870    0.090448470997195    0.321043536580714  0.0000
  O1     O1        0.020988794353870    0.998220777459075    0.530272610806842  0.0000
  O1     O1        0.465413811524958    0.966033716171865    0.520638112491116  0.0000
  O1     O1        0.974370935715408    0.947195442262783    0.278993698508677  0.0000
  O1     O1        0.524456917797486    0.994747653124102    0.277846295847493  0.0000
  O3     O3        0.969765993616843    0.979006458432461    0.783391698336183  0.0000
  O1     O1        0.513110763069509    0.980693486389074    0.777663402463885  0.0000
  O1     O1        0.572790014609327    0.224616164238161    0.091262684793873  0.0000
  O1     O1        0.918832626935020    0.746767825926110    0.082533437631614  0.0000
  O1     O1        0.371214614827600    0.129697618936389    0.838647993842456  0.0000
  O3     O3        0.110421559422569    0.891711075973243    0.857797025161154  0.0000
  O3     O3        0.389424933134122    0.772001611454925    0.848923940711808  0.0000
  O3     O3        0.069224551986019    0.215966712762765    0.847405676186747  0.0000
  O1     O1        0.624780746801351    0.886713680022287    0.079694194274421  0.0000
  O1     O1        0.864036498396832    0.088454812539356    0.104088286166870  0.0000
  O1     O1        0.467973573772894    0.964301584134025    0.030745201449065  0.0000
  O3     O3        0.015019341890941    0.019949388602592    0.025140228515130  0.0000
  O1     O1        0.155288157905381    0.509751169141994    0.319991879079397  0.0000
  O3     O3        0.342030910017781    0.424604383817241    0.296731143745461  0.0000
  O1     O1        0.834779613764881    0.444551938402832    0.621542677648085  0.0000
  O3     O3        0.650167102462414    0.529267304647414    0.628748088092642  0.0000
  O3     O3        0.233947513351689    0.207705873504746    0.246717100706473  0.0000
  O1     O1        0.265787008584382    0.743246822730198    0.261704695156771  0.0000
  O1     O1        0.723933215366056    0.214818022483890    0.689895285549423  0.0000
  O3     O3        0.754808567668139    0.752589554950531    0.676538387144176  0.0000
  O1     O1        0.115034015731697    0.348582896213687    0.092915476830093  0.0000
  O3     O3        0.373755740486350    0.630948744018142    0.080804851112865  0.0000
  O1     O1        0.852301479630467    0.228418981166757    0.848957910407617  0.0000
  O3     O3        0.639991223859039    0.728313479928767    0.832504888375701  0.0000
  O1     O1        0.873933286995899    0.624023064670591    0.839701387516769  0.0000
  O1     O1        0.603822668917145    0.334800435135463    0.842194143809510  0.0000
  O1     O1        0.130715956209041    0.739758347515862    0.107408320229355  0.0000
  O3     O3        0.348963796330886    0.235399389210388    0.090166980796032  0.0000
  O1     O1        0.649935672484287    0.531468053004432    0.057150865845916  0.0000
  O1     O1        0.838249646253380    0.442133543595492    0.063435265418658  0.0000
  O3     O3        0.325758364685061    0.473015780491540    0.875462708952274  0.0000
  O1     O1        0.137473612841756    0.540302004518195    0.876044203375142  0.0000
  O1     O1        0.723607599710271    0.217460352026182    0.004145144117903  0.0000
  O1     O1        0.765317601613517    0.760921073478073    0.005534616495739  0.0000
  O1     O1        0.222233322360454    0.225593429022439    0.916929403500163  0.0000
  O3     O3        0.254823199407646    0.755557519054135    0.950029231957137  0.0000
