data_c00471.vasp
_audit_creation_method             Generated by GULP
_audit_author_name                 Salvador R. G. Balestra
_symmetry_space_group_name_H-M     'P 1             '
_symmetry_Int_Tables_number        1

loop_
_symmetry_equiv_pos_site_id
_symmetry_equiv_pos_as_xyz
_cell_length_a                       17.5847
_cell_length_b                        7.8347
_cell_length_c                       10.2122
_cell_angle_alpha                   88.4694
_cell_angle_beta                    91.0719
_cell_angle_gamma                   88.5875

loop_
_atom_site_label
_atom_site_type_symbol
_atom_site_fract_x
_atom_site_fract_y
_atom_site_fract_z
_atom_site_charge
  Ge     Ge        0.052090000000021    0.000000000000000    0.372269999999958  0.0000
  Ge     Ge        0.449540502437870    0.942655532022780    0.364406044891662  0.0000
  Ge     Ge        0.940157958093149    0.970999559061535    0.616628723939546  0.0000
  Ge     Ge        0.552398764801378    0.012813873085162    0.616712389350968  0.0000
  Ge     Ge        0.547480790547976    0.004872874650832    0.106007758395558  0.0000
  Ge     Ge        0.955838126177469    0.944637815214335    0.105530047096504  0.0000
  Ge     Ge        0.438172544581888    0.960945317214237    0.853295887429232  0.0000
  Ge     Ge        0.146622225652619    0.313806703830633    0.287787305929059  0.0000
  Ge     Ge        0.350712785403775    0.635762921216863    0.286953931686893  0.0000
  Ge     Ge        0.825310605927680    0.266525975885528    0.718351688835250  0.0000
  Ge     Ge        0.641169769415692    0.335038703919063    0.724614164395891  0.0000
  Ge     Ge        0.171776848092520    0.718862066005335    0.288798445463758  0.0000
  Ge     Ge        0.326773074617472    0.229624134101791    0.283027973101721  0.0000
  Ge     Ge        0.648568417236782    0.315425850058627    0.042512477781800  0.0000
  Ge     Ge        0.852225641160617    0.637801439110715    0.045772542173717  0.0000
  Ge     Ge        0.324074236856728    0.253687814672561    0.967753035478227  0.0000
  Ge     Ge        0.167537084744267    0.726628693375342    0.970651650262865  0.0000
  Ge     Ge        0.140581661708763    0.324750055550045    0.970688263570782  0.0000
  Ge     Ge        0.673902385631205    0.718165054170396    0.045942143754352  0.0000
  Ge     Ge        0.828950574197366    0.233202514501246    0.034618637486680  0.0000
  Si     Si        0.053151113076508    0.015599315669606    0.853956353081382  0.0000
  Si     Si        0.668756818776743    0.725371731679064    0.734861537263499  0.0000
  Si     Si        0.845630349889069    0.657111777067222    0.733445946677755  0.0000
  Si     Si        0.346525704085982    0.650482390294490    0.975580566962713  0.0000
  O1     O1        0.086723356965163    0.201300338582063    0.387085537406891  0.0000
  O1     O1        0.416494600368350    0.738892286409039    0.379753930209697  0.0000
  O1     O1        0.873222095412636    0.131282627175040    0.617952938959934  0.0000
  O3     O3        0.631499345497649    0.884629540480812    0.655599512482439  0.0000
  O3     O3        0.901183291827431    0.777048433012154    0.654020132444494  0.0000
  O1     O1        0.576383348582625    0.221498029918860    0.636621894707423  0.0000
  O1     O1        0.124301633093937    0.848877781125538    0.392913894588929  0.0000
  O1     O1        0.376572314506743    0.089689653033054    0.385166710356076  0.0000
  O1     O1        0.973063136612767    0.959771623999088    0.459060251223780  0.0000
  O1     O1        0.529023560536957    0.981578147856292    0.454522305564810  0.0000
  O1     O1        0.029163057981458    0.985069546024582    0.206538075202537  0.0000
  O1     O1        0.472116069966990    0.965647814410290    0.200578393533745  0.0000
  O3     O3        0.022808383501810    0.009926957807314    0.704900137658160  0.0000
  O1     O1        0.470712460909954    0.958157030837929    0.695316747598557  0.0000
  O1     O1        0.585931512238385    0.201256347946761    0.133135402650473  0.0000
  O1     O1        0.921904569686870    0.741213453611838    0.127429554841456  0.0000
  O1     O1        0.368643966968885    0.117200592036285    0.864756003112841  0.0000
  O3     O3        0.126717797241735    0.890607198426423    0.875763882765491  0.0000
  O3     O3        0.405058978418480    0.760033515271654    0.892591505562994  0.0000
  O3     O3        0.075197065505588    0.208965588269654    0.884079734075129  0.0000
  O1     O1        0.619909063107221    0.854032340495305    0.133166912245619  0.0000
  O1     O1        0.880993722881641    0.086755668073942    0.126011031707872  0.0000
  O1     O1        0.517431004716423    0.004349591017101    0.944539926716004  0.0000
  O3     O3        0.984559259505950    0.955014228850225    0.943660221775782  0.0000
  O1     O1        0.161700941768646    0.511134575102928    0.346461010071540  0.0000
  O1     O1        0.339670330873393    0.432121255185217    0.342455676165822  0.0000
  O3     O3        0.841834530182387    0.475262510523699    0.666401212876627  0.0000
  O3     O3        0.645571944420960    0.547799812450568    0.670961994977012  0.0000
  O1     O1        0.230949311392631    0.195993726276388    0.280028802669801  0.0000
  O1     O1        0.267412820603722    0.755980307939566    0.289922142645186  0.0000
  O1     O1        0.729303754031209    0.238635547295338    0.710211434079800  0.0000
  O2     O2        0.760506116106361    0.742464105449613    0.737359842979034  0.0000
  O1     O1        0.111355389539076    0.336830512184331    0.129531492037521  0.0000
  O3     O3        0.377521868581654    0.625578444250959    0.124046602403324  0.0000
  O1     O1        0.858703662256736    0.225515561955224    0.874824269116545  0.0000
  O3     O3        0.641509738365054    0.727479688834186    0.883866559213793  0.0000
  O3     O3        0.875205330731681    0.627358284184772    0.881201574542368  0.0000
  O1     O1        0.613868657528013    0.334521187753363    0.883795112172362  0.0000
  O1     O1        0.137341188196899    0.737211345992620    0.129092066452929  0.0000
  O1     O1        0.359054504746318    0.219113042964122    0.124421892077723  0.0000
  O1     O1        0.662826005814265    0.511386141901447    0.104609427483777  0.0000
  O1     O1        0.842750932463451    0.432588634183650    0.099432358773538  0.0000
  O3     O3        0.337291756475072    0.464475080870073    0.915909932697604  0.0000
  O1     O1        0.145593147686051    0.530968831812007    0.909532577611108  0.0000
  O1     O1        0.733289518889798    0.199423394840900    0.035594760885677  0.0000
  O1     O1        0.768903078585730    0.756805006772278    0.057836829608992  0.0000
  O1     O1        0.227987565943358    0.223349931822807    0.966381589179539  0.0000
  O3     O3        0.265122915282509    0.750185862954749    0.973959312786538  0.0000
