data_c00486.vasp
_audit_creation_method             Generated by GULP
_audit_author_name                 Salvador R. G. Balestra
_symmetry_space_group_name_H-M     'P 1             '
_symmetry_Int_Tables_number        1

loop_
_symmetry_equiv_pos_site_id
_symmetry_equiv_pos_as_xyz
_cell_length_a                       17.6648
_cell_length_b                        7.8205
_cell_length_c                       10.2277
_cell_angle_alpha                   89.7047
_cell_angle_beta                    90.3594
_cell_angle_gamma                   91.2216

loop_
_atom_site_label
_atom_site_type_symbol
_atom_site_fract_x
_atom_site_fract_y
_atom_site_fract_z
_atom_site_charge
  Ge     Ge        0.052090000000021    0.000000000000000    0.372269999999958  0.0000
  Ge     Ge        0.444958821208612    0.053807562498671    0.394565141307073  0.0000
  Ge     Ge        0.943350422694994    0.050748968399200    0.620971647471266  0.0000
  Ge     Ge        0.549616133303919    0.000395965940411    0.647249733812012  0.0000
  Ge     Ge        0.555294248535276    0.004064415257482    0.153110393746091  0.0000
  Ge     Ge        0.950429763477887    0.055421918147267    0.110944172951788  0.0000
  Ge     Ge        0.447521597921298    0.061492833665677    0.903254144750008  0.0000
  Ge     Ge        0.173652098517135    0.282921875572372    0.289948784685281  0.0000
  Ge     Ge        0.327213971123731    0.756696783807918    0.286847128608260  0.0000
  Ge     Ge        0.644646151414941    0.682692175695064    0.717321607105540  0.0000
  Ge     Ge        0.826601116836982    0.753900297283983    0.724197924019605  0.0000
  Ge     Ge        0.674189469487475    0.280899236426526    0.726317925842064  0.0000
  Ge     Ge        0.146530105235652    0.683696852736768    0.298675752230424  0.0000
  Ge     Ge        0.826819546064330    0.767573580090918    0.038629605856689  0.0000
  Ge     Ge        0.345829773876507    0.371518534763382    0.964013672237979  0.0000
  Ge     Ge        0.142301278697810    0.696046172984674    0.980842619547126  0.0000
  Ge     Ge        0.323225537548870    0.775020874634735    0.971687053914404  0.0000
  Ge     Ge        0.166855028212479    0.289704067815397    0.971313073462166  0.0000
  Ge     Ge        0.645815917353357    0.688085410421786    0.032780711628326  0.0000
  Ge     Ge        0.847268208844766    0.365486057899499    0.046477666202537  0.0000
  Si     Si        0.050417125405543    0.003559533805442    0.861780334348538  0.0000
  Si     Si        0.849654475423963    0.358190305147362    0.733809375648194  0.0000
  Si     Si        0.349338690985359    0.360240064511704    0.276672297105641  0.0000
  Si     Si        0.672137603520572    0.288685721029168    0.037762608343197  0.0000
  O1     O1        0.129266147100940    0.137003945154529    0.388305794271281  0.0000
  O1     O1        0.377598728089035    0.894304808568674    0.384805615280311  0.0000
  O3     O3        0.912128494144311    0.252130284325560    0.658085356483427  0.0000
  O1     O1        0.581387495389896    0.796834866072124    0.624873844352199  0.0000
  O1     O1        0.874326295664585    0.895219616172593    0.624812130416844  0.0000
  O1     O1        0.627963735181099    0.134891244358380    0.632037365178522  0.0000
  O1     O1        0.084194635190975    0.795958582878243    0.391923915398161  0.0000
  O3     O3        0.412258487029437    0.253438462924832    0.352725084270545  0.0000
  O1     O1        0.976294081397493    0.054137732444909    0.462618939306107  0.0000
  O1     O1        0.473580624105062    0.057340782469206    0.556540375798029  0.0000
  O1     O1        0.025015504661770    0.018261951678798    0.209164941617198  0.0000
  O1     O1        0.527069140382480    0.011918885614693    0.313290316135814  0.0000
  O3     O3        0.022956706156099    0.001672381662545    0.711996786160864  0.0000
  O1     O1        0.523092146399012    0.020303573424044    0.809335056440012  0.0000
  O3     O3        0.628080238437350    0.151085707360995    0.125939886241656  0.0000
  O1     O1        0.877322556515264    0.909391659101508    0.132039265337383  0.0000
  O1     O1        0.412602886279259    0.263792121612860    0.880112879768946  0.0000
  O3     O3        0.075252902297741    0.812551004080522    0.898727140804572  0.0000
  O1     O1        0.372936234162426    0.918383373900733    0.878648091273080  0.0000
  O3     O3        0.119793439802513    0.137975070815986    0.878496457445296  0.0000
  O1     O1        0.583932639437367    0.798438781162830    0.125893261413026  0.0000
  O1     O1        0.912275412070862    0.254433670735587    0.133032840324301  0.0000
  O1     O1        0.476093864791225    0.049480213123356    0.064458501713968  0.0000
  O3     O3        0.979610351153922    0.056649351983152    0.948874078775912  0.0000
  O1     O1        0.157147210538102    0.480958753329697    0.355950944540291  0.0000
  O3     O3        0.339130695299588    0.546081095138358    0.339534025093453  0.0000
  O3     O3        0.839290428913341    0.544848053516267    0.670889944652445  0.0000
  O1     O1        0.653987431735057    0.479327324133107    0.662607203054115  0.0000
  O3     O3        0.270410678137613    0.252130985828910    0.282817610807358  0.0000
  O1     O1        0.232240686826831    0.793834770183244    0.294917084348130  0.0000
  O3     O3        0.770740373791834    0.250151876876370    0.725203966664705  0.0000
  O1     O1        0.731352966018304    0.788491406898720    0.718775714172454  0.0000
  O1     O1        0.139471916540373    0.273208244109197    0.131833917998784  0.0000
  O1     O1        0.357807613529522    0.786215209228812    0.129703524927003  0.0000
  O3     O3        0.873354445881940    0.386458590916272    0.883571207230045  0.0000
  O1     O1        0.612199341438276    0.678632338721720    0.875924003765212  0.0000
  O1     O1        0.859491562890629    0.783405702921371    0.880401163930225  0.0000
  O3     O3        0.643967745781866    0.274188080816917    0.887858047079046  0.0000
  O1     O1        0.114214644533897    0.670308810813708    0.139651743023704  0.0000
  O3     O3        0.372765457209742    0.390823156016717    0.127276763180108  0.0000
  O3     O3        0.658099501496894    0.480616091232048    0.088738753408353  0.0000
  O1     O1        0.840862303861726    0.566951119580654    0.104867631278108  0.0000
  O1     O1        0.335460223509470    0.573894991509565    0.906514098327098  0.0000
  O1     O1        0.150516098046129    0.494984987918190    0.916350944165012  0.0000
  O3     O3        0.761242632228244    0.253913991630074    0.046939817948433  0.0000
  O1     O1        0.731259200424774    0.797806568912518    0.035899960190182  0.0000
  O1     O1        0.261988833414533    0.255857359422460    0.958798077858229  0.0000
  O1     O1        0.227540973917060    0.806664435314323    0.975813961235967  0.0000
