data_c00403.vasp
_audit_creation_method             Generated by GULP
_audit_author_name                 Salvador R. G. Balestra
_symmetry_space_group_name_H-M     'P 1             '
_symmetry_Int_Tables_number        1

loop_
_symmetry_equiv_pos_site_id
_symmetry_equiv_pos_as_xyz
_cell_length_a                       17.5206
_cell_length_b                        7.8167
_cell_length_c                       10.3164
_cell_angle_alpha                   89.6140
_cell_angle_beta                    89.7248
_cell_angle_gamma                   91.9978

loop_
_atom_site_label
_atom_site_type_symbol
_atom_site_fract_x
_atom_site_fract_y
_atom_site_fract_z
_atom_site_charge
  Ge     Ge        0.052090000000021    0.000000000000000    0.372269999999958  0.0000
  Ge     Ge        0.449587646232543    0.064774613464091    0.365129238703666  0.0000
  Ge     Ge        0.949064324410299    0.067356726488413    0.624816922565625  0.0000
  Ge     Ge        0.553197220157751    0.014150085973486    0.618304589720179  0.0000
  Ge     Ge        0.548689893587262    0.001942740546186    0.106907350280537  0.0000
  Ge     Ge        0.958890494742375    0.068195094332155    0.107165220147636  0.0000
  Ge     Ge        0.440624481961242    0.062391594425639    0.859782955487708  0.0000
  Ge     Ge        0.173308003649860    0.286653454294417    0.286274751169449  0.0000
  Ge     Ge        0.326964785029879    0.781999673772778    0.279329407830354  0.0000
  Ge     Ge        0.859792314391126    0.387692607723606    0.731706696965186  0.0000
  Ge     Ge        0.649725160186058    0.700981523649352    0.731060251643774  0.0000
  Ge     Ge        0.676720422203837    0.302466906267707    0.727948911048246  0.0000
  Ge     Ge        0.147087983383797    0.692107777966981    0.285905281381267  0.0000
  Ge     Ge        0.353501270780188    0.373003406456887    0.283526041748618  0.0000
  Ge     Ge        0.676638411351239    0.290003856523539    0.042579650372581  0.0000
  Ge     Ge        0.828929247261846    0.780027781108084    0.043744776586684  0.0000
  Ge     Ge        0.147688603989646    0.695815902833637    0.971879294359513  0.0000
  Ge     Ge        0.172373959079574    0.296252461360672    0.972633127654567  0.0000
  Ge     Ge        0.649449572190335    0.691348872413549    0.049127154140273  0.0000
  Ge     Ge        0.858045660781564    0.378696009178191    0.045034431486310  0.0000
  Si     Si        0.060536737528127    0.008825181620428    0.856444587409551  0.0000
  Si     Si        0.828795408748451    0.779542490787928    0.734035905710015  0.0000
  Si     Si        0.353189902573959    0.373376901210496    0.979548045750477  0.0000
  Si     Si        0.328928187045086    0.766820220113254    0.974591236484726  0.0000
  O1     O1        0.125205272490729    0.150635488668503    0.390485217517549  0.0000
  O1     O1        0.374967342683564    0.916178857497910    0.381922826251200  0.0000
  O1     O1        0.924022997268607    0.275252736173752    0.642230636937871  0.0000
  O1     O1        0.581978543040473    0.811084582010090    0.650572079426619  0.0000
  O3     O3        0.872028461819287    0.930698202537838    0.655512424262913  0.0000
  O1     O1        0.630252922864275    0.150950982086617    0.636597442599593  0.0000
  O1     O1        0.084894783695023    0.796715972001018    0.384310746487285  0.0000
  O1     O1        0.416886457183288    0.268381570013000    0.379170332769993  0.0000
  O1     O1        0.974614685144311    0.036732642145190    0.465393721325279  0.0000
  O1     O1        0.526271021976299    0.024462734889329    0.457494300068542  0.0000
  O1     O1        0.029748948340409    0.022838965927199    0.209235046183643  0.0000
  O1     O1        0.474007982821649    0.042909481551245    0.203445831296173  0.0000
  O3     O3        0.030991800421723    0.019945508952454    0.709780998149966  0.0000
  O1     O1        0.471949710494994    0.065411278138705    0.701649503154759  0.0000
  O1     O1        0.625238732007753    0.143104642935850    0.131800315449067  0.0000
  O1     O1        0.882743090001103    0.924439852747262    0.127516252396261  0.0000
  O3     O3        0.408101926561973    0.266308823294252    0.889279162805670  0.0000
  O3     O3        0.085267200653709    0.815837618325177    0.884289683130404  0.0000
  O3     O3        0.370445002828227    0.901676082388458    0.878662496872257  0.0000
  O3     O3        0.133787599817459    0.135397341349987    0.877788064059693  0.0000
  O1     O1        0.581492438394275    0.798984126788904    0.131295911637335  0.0000
  O1     O1        0.923846499109205    0.268474548752970    0.131156457551136  0.0000
  O1     O1        0.519927284701919    0.020407983938630    0.947502559137780  0.0000
  O3     O3        0.990665085704971    0.061377876074899    0.947339473646178  0.0000
  O1     O1        0.161626679290822    0.492056557608358    0.342998407071354  0.0000
  O1     O1        0.340851952788310    0.575549064747498    0.334190917888032  0.0000
  O3     O3        0.847654092926846    0.594611396001350    0.674491871398597  0.0000
  O1     O1        0.657926890906163    0.501934986567198    0.666173370978578  0.0000
  O1     O1        0.269201281650983    0.252458310053634    0.285496320080259  0.0000
  O1     O1        0.231230843014598    0.814754876260281    0.281291877011813  0.0000
  O1     O1        0.773328976481126    0.277862040228910    0.725519334946432  0.0000
  O3     O3        0.738585702124311    0.808364144861245    0.727637760374353  0.0000
  O1     O1        0.139329024610835    0.275547928929201    0.128983645149492  0.0000
  O3     O3        0.359871315517938    0.798101304396327    0.119321756083806  0.0000
  O1     O1        0.891052800598946    0.395307141840807    0.887676348765210  0.0000
  O1     O1        0.622659104969874    0.675860019683673    0.889368389375560  0.0000
  O3     O3        0.856759834803068    0.781686194683166    0.882018413354897  0.0000
  O1     O1        0.644533418486597    0.284138661939086    0.884995943469459  0.0000
  O1     O1        0.115044820331090    0.679342969285018    0.128261957726380  0.0000
  O3     O3        0.386496130818509    0.376876351787869    0.123743544967391  0.0000
  O1     O1        0.662795263590255    0.490827075273933    0.107434594774264  0.0000
  O1     O1        0.844361780625241    0.577344847583341    0.105082390571103  0.0000
  O2     O2        0.345047291658763    0.570679993543739    0.931430340073576  0.0000
  O1     O1        0.149809191202146    0.492696642544573    0.910598761331234  0.0000
  O1     O1        0.772986614365305    0.259762949945197    0.042706696916902  0.0000
  O1     O1        0.733623727403330    0.814099974334923    0.054730821654982  0.0000
  O3     O3        0.270160575334190    0.279656790345809    0.978651667640663  0.0000
  O3     O3        0.238481508151369    0.790720731798986    0.972121528121249  0.0000
