data_c00426.vasp
_audit_creation_method             Generated by GULP
_audit_author_name                 Salvador R. G. Balestra
_symmetry_space_group_name_H-M     'P 1             '
_symmetry_Int_Tables_number        1

loop_
_symmetry_equiv_pos_site_id
_symmetry_equiv_pos_as_xyz
_cell_length_a                       17.6391
_cell_length_b                        7.8578
_cell_length_c                       10.1807
_cell_angle_alpha                   89.9599
_cell_angle_beta                    90.0647
_cell_angle_gamma                   88.4720

loop_
_atom_site_label
_atom_site_type_symbol
_atom_site_fract_x
_atom_site_fract_y
_atom_site_fract_z
_atom_site_charge
  Ge     Ge        0.052090000000021    0.000000000000000    0.372269999999958  0.0000
  Ge     Ge        0.446533635294319    0.954909525588098    0.371540896796188  0.0000
  Ge     Ge        0.947325788778716    0.952579993478838    0.628489109358197  0.0000
  Ge     Ge        0.555349121987694    0.010827554045250    0.618070161756639  0.0000
  Ge     Ge        0.548187685074692    0.016743163415826    0.116033689191283  0.0000
  Ge     Ge        0.948695632313433    0.964518495079951    0.111503275653982  0.0000
  Ge     Ge        0.443966067455093    0.959189883473026    0.862225193676027  0.0000
  Ge     Ge        0.144137858759918    0.318421643932647    0.297325500875752  0.0000
  Ge     Ge        0.347273744816699    0.641813445455132    0.304988751203239  0.0000
  Ge     Ge        0.828859554362339    0.253363211711001    0.737909859020892  0.0000
  Ge     Ge        0.674762216760690    0.722782297230546    0.734784860647593  0.0000
  Ge     Ge        0.648300725578277    0.323709568121408    0.734297334952614  0.0000
  Ge     Ge        0.325842583550084    0.242380137448364    0.295874027171174  0.0000
  Ge     Ge        0.651332012697839    0.325532125338085    0.057771782595914  0.0000
  Ge     Ge        0.851950785786775    0.646266132411793    0.050571924556809  0.0000
  Ge     Ge        0.324385294689373    0.246427924529448    0.978632088087212  0.0000
  Ge     Ge        0.168994785798821    0.722591843484227    0.985842621767459  0.0000
  Ge     Ge        0.350276678268359    0.648079050077089    0.983711919036144  0.0000
  Ge     Ge        0.141130308176643    0.320189797064112    0.982370590083746  0.0000
  Ge     Ge        0.671565295071753    0.725197182193131    0.052576587631517  0.0000
  Si     Si        0.053596874596294    0.011490715821374    0.866647183942059  0.0000
  Si     Si        0.852659723816130    0.648336082811991    0.741014300721210  0.0000
  Si     Si        0.170245496410224    0.711974645217819    0.299382864671208  0.0000
  Si     Si        0.828035291362994    0.251233121266508    0.050775461762765  0.0000
  O1     O1        0.087891448455383    0.199063946556593    0.396891528990921  0.0000
  O1     O1        0.409919973326194    0.756973429998242    0.394973087595071  0.0000
  O1     O1        0.880344014475662    0.112119388257515    0.645760335173751  0.0000
  O1     O1        0.633017349468351    0.878845541925818    0.641139552556544  0.0000
  O3     O3        0.911685292861663    0.753704916541916    0.656136768586797  0.0000
  O1     O1        0.580082575156833    0.215673356825383    0.651631650733134  0.0000
  O3     O3        0.123928781076103    0.845581485385761    0.388235583797477  0.0000
  O1     O1        0.373764585896362    0.101410818971487    0.395190278668384  0.0000
  O1     O1        0.976259409920479    0.955517132093976    0.467085557452716  0.0000
  O1     O1        0.527168064694759    0.994227724367615    0.456289510973802  0.0000
  O1     O1        0.022968022447162    0.002651509390889    0.210011772715637  0.0000
  O1     O1        0.470860698221097    0.974524297762518    0.207154050393253  0.0000
  O3     O3        0.029622410392461    0.990253983230797    0.715509449805817  0.0000
  O1     O1        0.475589897757307    0.954726927883912    0.702581143976752  0.0000
  O1     O1        0.587827552544394    0.211745091788982    0.145030848348320  0.0000
  O1     O1        0.914617671297468    0.763351912656618    0.137481339425270  0.0000
  O1     O1        0.367778859702141    0.097498187545261    0.879982392555335  0.0000
  O3     O3        0.123382889529525    0.884437447317297    0.902002294870500  0.0000
  O1     O1        0.418036104779177    0.756085449332879    0.901432020387305  0.0000
  O3     O3        0.077966389293227    0.204849348302846    0.890501832294782  0.0000
  O1     O1        0.619867943104467    0.867578355275642    0.142877585786085  0.0000
  O3     O3        0.875742643225078    0.114792068739184    0.135112602162456  0.0000
  O1     O1        0.520236350254720    0.020058396031837    0.953641276609749  0.0000
  O3     O3        0.979147542773811    0.968045525080516    0.949522411759129  0.0000
  O3     O3        0.157315603126644    0.522091145505408    0.355176298236628  0.0000
  O1     O1        0.340433157876151    0.440882960219129    0.363414321276201  0.0000
  O3     O3        0.842538307596132    0.460408329254909    0.683102725021123  0.0000
  O1     O1        0.655750965005923    0.525792914889421    0.671840269055384  0.0000
  O1     O1        0.230551655746856    0.211514155037291    0.289088136625137  0.0000
  O3     O3        0.259314652339631    0.748349690887512    0.302594326062915  0.0000
  O1     O1        0.734304766126896    0.215333118846672    0.722439027766264  0.0000
  O3     O3        0.771827252705156    0.749431163445830    0.740910023222179  0.0000
  O1     O1        0.108104320732094    0.330273269465877    0.140747496051745  0.0000
  O1     O1        0.377424018624871    0.629047943871464    0.144945612388603  0.0000
  O3     O3        0.856157409825059    0.237819519313896    0.900392124780384  0.0000
  O1     O1        0.640299506767166    0.738824577430610    0.892040517058628  0.0000
  O3     O3        0.882686651497968    0.632966798768799    0.889312099102681  0.0000
  O1     O1        0.623777156522213    0.343932827657519    0.896284451011778  0.0000
  O3     O3        0.141042393620094    0.722058558076942    0.149085954614601  0.0000
  O1     O1        0.359149078659397    0.230679033290331    0.136452187577791  0.0000
  O1     O1        0.657931086280852    0.525681466898297    0.118453870547126  0.0000
  O3     O3        0.841875008522733    0.441019272119996    0.106735843568899  0.0000
  O1     O1        0.340961407658738    0.447944126684816    0.920095504073549  0.0000
  O1     O1        0.148721781628741    0.524833294140489    0.924110748630473  0.0000
  O3     O3        0.738972757831730    0.217270931063295    0.057240258273818  0.0000
  O1     O1        0.766985388493637    0.757227353153183    0.055710816588626  0.0000
  O1     O1        0.228406882168279    0.218956994428793    0.980657800792501  0.0000
  O1     O1        0.264016503733802    0.756169531025276    0.974877929329028  0.0000
