data_c00460.vasp
_audit_creation_method             Generated by GULP
_audit_author_name                 Salvador R. G. Balestra
_symmetry_space_group_name_H-M     'P 1             '
_symmetry_Int_Tables_number        1

loop_
_symmetry_equiv_pos_site_id
_symmetry_equiv_pos_as_xyz
_cell_length_a                       17.5747
_cell_length_b                        7.8500
_cell_length_c                       10.2713
_cell_angle_alpha                   89.6972
_cell_angle_beta                    90.3369
_cell_angle_gamma                   88.2724

loop_
_atom_site_label
_atom_site_type_symbol
_atom_site_fract_x
_atom_site_fract_y
_atom_site_fract_z
_atom_site_charge
  Ge     Ge        0.052090000000021    0.000000000000000    0.372269999999958  0.0000
  Ge     Ge        0.443857669254067    0.952679076639315    0.368247785675259  0.0000
  Ge     Ge        0.947986516870492    0.945776417901976    0.623226294247179  0.0000
  Ge     Ge        0.549190909111838    0.995330815087612    0.624391359907490  0.0000
  Ge     Ge        0.549910060159108    0.000862182215827    0.120055485311668  0.0000
  Ge     Ge        0.939070023079438    0.939263131911059    0.129137337403905  0.0000
  Ge     Ge        0.440893172795751    0.948445342978984    0.873393345879434  0.0000
  Ge     Ge        0.138946641774696    0.322444155890982    0.259847322008349  0.0000
  Ge     Ge        0.347089601253553    0.640902909674397    0.252277253861949  0.0000
  Ge     Ge        0.825642661599785    0.233865794666731    0.692651587184993  0.0000
  Ge     Ge        0.846813091990259    0.634656735883149    0.695865651951516  0.0000
  Ge     Ge        0.644594381097569    0.311928055886488    0.691931185732965  0.0000
  Ge     Ge        0.321946097441086    0.242587542064219    0.258203361989380  0.0000
  Ge     Ge        0.848889405848021    0.626015244951088    0.013304812775052  0.0000
  Ge     Ge        0.317579533284042    0.237364542838941    0.943445485791314  0.0000
  Ge     Ge        0.160291344535715    0.716136829809188    0.946618788819444  0.0000
  Ge     Ge        0.340572226262393    0.637935982544680    0.933478717386932  0.0000
  Ge     Ge        0.135174867644001    0.314296684656110    0.947134591506985  0.0000
  Ge     Ge        0.667138078702579    0.701932527296238    0.005907382560562  0.0000
  Ge     Ge        0.820294701178343    0.226335519549414    0.008964690008388  0.0000
  Si     Si        0.040025094035912    0.006912927844710    0.881534418824748  0.0000
  Si     Si        0.668472691862797    0.708510577860298    0.697723613696060  0.0000
  Si     Si        0.168221259974543    0.714041029791987    0.256758046418198  0.0000
  Si     Si        0.641835317123595    0.305361868541685    0.999095696788275  0.0000
  O1     O1        0.077934139084649    0.207334551351314    0.352873490084728  0.0000
  O1     O1        0.414518494111394    0.751570789226650    0.332518617228564  0.0000
  O1     O1        0.876955769567186    0.097123857385939    0.596111197241246  0.0000
  O3     O3        0.622945769560260    0.843977080990530    0.607843501284800  0.0000
  O1     O1        0.908820707871757    0.749921755909655    0.606012119970126  0.0000
  O1     O1        0.582776475026784    0.196997582757281    0.600601948681557  0.0000
  O3     O3        0.127413657400947    0.861580620283680    0.339423580487100  0.0000
  O1     O1        0.367540382982479    0.091492592797672    0.352464210318385  0.0000
  O1     O1        0.027005803004530    0.971675193521125    0.532701276017005  0.0000
  O1     O1        0.473319441726761    0.952993623770571    0.528795346368712  0.0000
  O1     O1        0.971183026755734    0.955657725138278    0.286052679973879  0.0000
  O1     O1        0.521951317396057    0.008443881883227    0.280152131625308  0.0000
  O3     O3        0.970706772996691    0.968882352106397    0.787951990520595  0.0000
  O1     O1        0.518543225941595    0.988630263671703    0.783493114690951  0.0000
  O3     O3        0.581872149894498    0.201631150816911    0.081825721226601  0.0000
  O1     O1        0.915127344697914    0.732504282373146    0.101381328456168  0.0000
  O1     O1        0.366828927110160    0.094479345847397    0.849764964339518  0.0000
  O3     O3        0.107208220702669    0.865025988523664    0.860428698725278  0.0000
  O1     O1        0.404880742299993    0.749869385982449    0.846263419043327  0.0000
  O3     O3        0.072828272219967    0.193887201054151    0.857025018683875  0.0000
  O1     O1        0.618830407022045    0.843058574169413    0.101844245970106  0.0000
  O1     O1        0.859815328155966    0.069110903045476    0.104616102791256  0.0000
  O1     O1        0.469668393546068    0.955111383699474    0.034401687158675  0.0000
  O3     O3        0.013316287788003    0.000248506581671    0.031353800092913  0.0000
  O3     O3        0.151418928801627    0.528018116557724    0.316688463878564  0.0000
  O1     O1        0.340823107182674    0.441465923541846    0.318177672887894  0.0000
  O1     O1        0.839412530585535    0.436513597668329    0.633038898511801  0.0000
  O3     O3        0.655034735211793    0.519467122657273    0.641063006349170  0.0000
  O1     O1        0.225632598133267    0.216438388348332    0.259724533581023  0.0000
  O3     O3        0.258010407647502    0.744574880662869    0.256488651227771  0.0000
  O1     O1        0.729890416662777    0.200851500252692    0.685979049021478  0.0000
  O3     O3        0.758150822399667    0.740906942389960    0.699354365298538  0.0000
  O1     O1        0.103477632653254    0.332148857404887    0.104494027742084  0.0000
  O1     O1        0.371405163964175    0.619296065768031    0.092306717258439  0.0000
  O1     O1        0.854409193391044    0.216497401574029    0.853010867743982  0.0000
  O3     O3        0.637375151350355    0.723243489621249    0.845190986970250  0.0000
  O1     O1        0.877856101618544    0.616478652820763    0.854057893434253  0.0000
  O3     O3        0.612429002717483    0.320317941613285    0.850980360432939  0.0000
  O3     O3        0.135499425022070    0.718526763944429    0.109894340023319  0.0000
  O1     O1        0.353078607728778    0.226302280953678    0.100136624154013  0.0000
  O3     O3        0.651434131514552    0.493637838399310    0.056105312000577  0.0000
  O1     O1        0.840405208513171    0.422888350430215    0.071922994645639  0.0000
  O1     O1        0.328454996263918    0.437640737751944    0.876202130988740  0.0000
  O1     O1        0.142972075155557    0.515689099166443    0.885831444813440  0.0000
  O3     O3        0.722725955851369    0.203059060528785    0.001586243132074  0.0000
  O1     O1        0.762340538867365    0.734728170174354    0.019022010194254  0.0000
  O1     O1        0.221653687492831    0.205488150045970    0.949228059861582  0.0000
  O1     O1        0.254884427166245    0.752503594214877    0.931905968236822  0.0000
