data_c00434.vasp
_audit_creation_method             Generated by GULP
_audit_author_name                 Salvador R. G. Balestra
_symmetry_space_group_name_H-M     'P 1             '
_symmetry_Int_Tables_number        1

loop_
_symmetry_equiv_pos_site_id
_symmetry_equiv_pos_as_xyz
_cell_length_a                       17.6020
_cell_length_b                        7.8442
_cell_length_c                       10.1912
_cell_angle_alpha                   89.5701
_cell_angle_beta                    90.1080
_cell_angle_gamma                   88.1264

loop_
_atom_site_label
_atom_site_type_symbol
_atom_site_fract_x
_atom_site_fract_y
_atom_site_fract_z
_atom_site_charge
  Ge     Ge        0.052090000000021    0.000000000000000    0.372269999999958  0.0000
  Ge     Ge        0.439153485230715    0.964567688031385    0.320901251135420  0.0000
  Ge     Ge        0.944960403796384    0.955493317477736    0.624688404893350  0.0000
  Ge     Ge        0.547784349645294    0.020765863451253    0.569773177247950  0.0000
  Ge     Ge        0.544600006379470    0.019056437373397    0.069384531380706  0.0000
  Ge     Ge        0.942810011281897    0.952508146396883    0.122353803061403  0.0000
  Ge     Ge        0.439742334571312    0.959068017581118    0.817620066897182  0.0000
  Ge     Ge        0.141094844712135    0.322276082306973    0.258000090496959  0.0000
  Ge     Ge        0.345267280654886    0.645330818773220    0.253488952963838  0.0000
  Ge     Ge        0.824736149960109    0.252785825066590    0.686871046225158  0.0000
  Ge     Ge        0.669312204628328    0.730042448341969    0.686739921431101  0.0000
  Ge     Ge        0.642627149129543    0.330891727298501    0.683776580016623  0.0000
  Ge     Ge        0.642425265486260    0.331967957153515    0.004653595230053  0.0000
  Ge     Ge        0.849437079091322    0.644610181310824    0.003539528885287  0.0000
  Ge     Ge        0.318729273414405    0.247606929017202    0.943188597124426  0.0000
  Ge     Ge        0.162489945728672    0.723891093548984    0.943006396831578  0.0000
  Ge     Ge        0.344773380639121    0.652042730338266    0.937240727575986  0.0000
  Ge     Ge        0.137255748918518    0.321980381560026    0.941622539010053  0.0000
  Ge     Ge        0.670003273318088    0.732440905063960    0.005754934929228  0.0000
  Ge     Ge        0.822342342642445    0.241050800072828    0.004870406111792  0.0000
  Si     Si        0.043797141399177    0.015804021555737    0.875723661938137  0.0000
  Si     Si        0.846672361603466    0.646908736251415    0.691003478214222  0.0000
  Si     Si        0.165396664640233    0.713258261662393    0.253154272745318  0.0000
  Si     Si        0.321210147572934    0.254721267912363    0.254781923899481  0.0000
  O1     O1        0.082184354079194    0.204979687806632    0.352693098201306  0.0000
  O1     O1        0.402318407642557    0.766959771812898    0.348472059781287  0.0000
  O1     O1        0.877516812726777    0.113923545844776    0.592053914796467  0.0000
  O1     O1        0.625297367603978    0.885934361208706    0.594315484252033  0.0000
  O3     O3        0.905917180974501    0.756523994932790    0.609297746569859  0.0000
  O1     O1        0.575244638207278    0.224596038879739    0.598382465688820  0.0000
  O3     O3        0.127246748218089    0.860659535715939    0.339910939961732  0.0000
  O3     O3        0.365945987529060    0.115517421756187    0.343163716238875  0.0000
  O1     O1        0.024441583675367    0.973592399329816    0.532470042293742  0.0000
  O1     O1        0.518670817624070    0.004259884616816    0.408506576597127  0.0000
  O1     O1        0.972531627094995    0.959262593250781    0.282303193816679  0.0000
  O1     O1        0.466704136356134    0.973224438898938    0.158416915357318  0.0000
  O3     O3        0.971766102437285    0.977136076266353    0.788290731554061  0.0000
  O1     O1        0.468196718249571    0.969296339755304    0.656542272268661  0.0000
  O1     O1        0.576984016117723    0.221390056038126    0.092252530940045  0.0000
  O1     O1        0.918321826139655    0.747726011859279    0.085975134639057  0.0000
  O1     O1        0.364952841040443    0.098347329680380    0.850529600300625  0.0000
  O3     O3        0.111131480434168    0.874322764267842    0.853821398764076  0.0000
  O1     O1        0.410053413632919    0.755365288085246    0.845116575565621  0.0000
  O3     O3        0.075538595482636    0.203191326239664    0.848952588281719  0.0000
  O1     O1        0.619010679210013    0.875139498604656    0.097889010661414  0.0000
  O1     O1        0.866356077530120    0.091200943908201    0.103214986123547  0.0000
  O1     O1        0.518463595854883    0.007887261223227    0.906123246482207  0.0000
  O3     O3        0.019147172137663    0.011432300237105    0.028230792880384  0.0000
  O3     O3        0.148070949190316    0.528830190817234    0.315340781412204  0.0000
  O3     O3        0.339533111342917    0.440212547704982    0.312738990812527  0.0000
  O3     O3        0.836721363258671    0.461195100925418    0.630621047640302  0.0000
  O1     O1        0.650976636635397    0.533928280247319    0.622260094536692  0.0000
  O3     O3        0.231564757822166    0.227405843861808    0.256513475771423  0.0000
  O3     O3        0.255034855401097    0.739383852669615    0.245743002161353  0.0000
  O1     O1        0.728987060007667    0.220384828128553    0.676962181438290  0.0000
  O3     O3        0.766808376777018    0.754099426699329    0.691681113626488  0.0000
  O1     O1        0.106449021841993    0.331225690165776    0.101558851409936  0.0000
  O1     O1        0.378403624730746    0.645197752386718    0.095798420276872  0.0000
  O1     O1        0.854498098198874    0.225356667230861    0.846263120272670  0.0000
  O1     O1        0.638102050158112    0.745219997408890    0.845703651403775  0.0000
  O3     O3        0.874774256045897    0.621217596137597    0.840320504931020  0.0000
  O1     O1        0.614107656114780    0.353417984291572    0.843509587265774  0.0000
  O3     O3        0.132581506349117    0.722897077607009    0.105394267339282  0.0000
  O3     O3        0.350728687350243    0.244157519794032    0.104782465813182  0.0000
  O1     O1        0.655422908650427    0.529598426789358    0.066784767417404  0.0000
  O1     O1        0.838238988152867    0.443138994049356    0.063752657044398  0.0000
  O1     O1        0.334147844809253    0.448675205831218    0.881892255438412  0.0000
  O1     O1        0.145339657101107    0.523867680952719    0.881269121359929  0.0000
  O1     O1        0.726322022140607    0.212309688815210    0.003946664291785  0.0000
  O1     O1        0.765749959147227    0.764017383597544    0.012817863156556  0.0000
  O1     O1        0.223615676282459    0.213292665243447    0.941112507688089  0.0000
  O1     O1        0.257381590241755    0.759100810623296    0.932061439025064  0.0000
