data_c00459.vasp
_audit_creation_method             Generated by GULP
_audit_author_name                 Salvador R. G. Balestra
_symmetry_space_group_name_H-M     'P 1             '
_symmetry_Int_Tables_number        1

loop_
_symmetry_equiv_pos_site_id
_symmetry_equiv_pos_as_xyz
_cell_length_a                       17.6267
_cell_length_b                        7.8202
_cell_length_c                       10.2635
_cell_angle_alpha                   90.0867
_cell_angle_beta                    90.5306
_cell_angle_gamma                   91.2781

loop_
_atom_site_label
_atom_site_type_symbol
_atom_site_fract_x
_atom_site_fract_y
_atom_site_fract_z
_atom_site_charge
  Ge     Ge        0.052090000000021    0.000000000000000    0.372269999999958  0.0000
  Ge     Ge        0.446167818054941    0.053065166303086    0.333326402469437  0.0000
  Ge     Ge        0.947759138722979    0.053227372958616    0.624318824538763  0.0000
  Ge     Ge        0.553039254528479    0.003839784606165    0.583203223023911  0.0000
  Ge     Ge        0.545895370854698    0.994453519042924    0.075342349153267  0.0000
  Ge     Ge        0.940939774908603    0.049166518593483    0.125192644782561  0.0000
  Ge     Ge        0.439570131371454    0.048558411296048    0.821726558606291  0.0000
  Ge     Ge        0.168054974534351    0.297189879304233    0.264516192078796  0.0000
  Ge     Ge        0.322494397367904    0.770925817311258    0.254884635125015  0.0000
  Ge     Ge        0.852632079964565    0.371691976126909    0.692350628329675  0.0000
  Ge     Ge        0.822478571789723    0.772765812630054    0.699877641212909  0.0000
  Ge     Ge        0.669929273249370    0.300301661168554    0.692984340755239  0.0000
  Ge     Ge        0.349276677506716    0.368823697665001    0.264071536435406  0.0000
  Ge     Ge        0.669320203827409    0.282954407248841    0.005861540856894  0.0000
  Ge     Ge        0.343516278174083    0.355992908922792    0.946385723594243  0.0000
  Ge     Ge        0.139873802344766    0.683202653725001    0.944765201956852  0.0000
  Ge     Ge        0.319360505260541    0.762927396033585    0.938543894464976  0.0000
  Ge     Ge        0.161956655639068    0.278128449071020    0.950135319935808  0.0000
  Ge     Ge        0.648762616496104    0.685280069577015    0.014916787820523  0.0000
  Ge     Ge        0.850465292868292    0.365656759156646    0.005931454011515  0.0000
  Si     Si        0.043452848233080    0.991484238925613    0.880460005171710  0.0000
  Si     Si        0.646444878534616    0.696415618469213    0.702700898947450  0.0000
  Si     Si        0.145776770877786    0.693174935648834    0.254163519790455  0.0000
  Si     Si        0.823785656643372    0.763953450279094    0.010870051177919  0.0000
  O1     O1        0.119617844081780    0.159726236645442    0.364352669406953  0.0000
  O1     O1        0.368677262607968    0.916739570342564    0.351496795649563  0.0000
  O1     O1        0.916383892841676    0.257237444298460    0.603052390354000  0.0000
  O3     O3        0.583247039137774    0.803030771442148    0.627182783836361  0.0000
  O1     O1        0.868651513174462    0.920664345602753    0.608002480477600  0.0000
  O1     O1        0.622324822981067    0.159530853177272    0.592432164055452  0.0000
  O3     O3        0.086074120150564    0.800631617753284    0.334994300002183  0.0000
  O1     O1        0.414456128699199    0.257285614297686    0.353592925522891  0.0000
  O1     O1        0.022051020636245    0.997439374675486    0.531922838011704  0.0000
  O1     O1        0.523595385471807    0.999307358226698    0.421940804265526  0.0000
  O1     O1        0.971506885779731    0.039244603811488    0.283646563003905  0.0000
  O1     O1        0.470769109136774    0.033460051810110    0.170550025901334  0.0000
  O3     O3        0.973422948493696    0.028457240460263    0.787957282622879  0.0000
  O1     O1        0.471397019303899    0.051714693616752    0.663992172426848  0.0000
  O1     O1        0.619471269994568    0.140598848388705    0.098360605933432  0.0000
  O3     O3        0.868188521170631    0.901027862976628    0.099895811806891  0.0000
  O1     O1        0.408910082488131    0.250014791498481    0.857941187928453  0.0000
  O3     O3        0.073402989486063    0.799979983798969    0.860429464522707  0.0000
  O1     O1        0.365605126151936    0.903930092376253    0.838933335877961  0.0000
  O3     O3        0.111861742757764    0.129250599531595    0.857726266211462  0.0000
  O1     O1        0.583396644942126    0.794783721456591    0.099773699338080  0.0000
  O1     O1        0.911564800157537    0.254671317457298    0.102050174922842  0.0000
  O1     O1        0.516454641695228    0.996837438026568    0.914986021420981  0.0000
  O3     O3        0.018577085937471    0.006553585668157    0.030888269168483  0.0000
  O3     O3        0.158103769272157    0.507887037889577    0.317065909894176  0.0000
  O1     O1        0.341047677073506    0.572625996092366    0.319438771670964  0.0000
  O1     O1        0.843065548433350    0.574964709768113    0.636678115687708  0.0000
  O3     O3        0.656416555388701    0.509694278069296    0.640427315220631  0.0000
  O1     O1        0.263143714055895    0.259196722293091    0.267838588470311  0.0000
  O3     O3        0.225262396258442    0.799884139913138    0.251540648055794  0.0000
  O1     O1        0.765416463261547    0.266664814233315    0.691001496120694  0.0000
  O3     O3        0.725636175808441    0.803677671844251    0.694621472754594  0.0000
  O1     O1        0.132947629767577    0.268558592240291    0.109595757963462  0.0000
  O1     O1        0.353086998961311    0.783594055930167    0.096014508679487  0.0000
  O1     O1        0.884979394418719    0.376163315739013    0.851167087943356  0.0000
  O3     O3        0.622850127819491    0.667706370242316    0.851507294949896  0.0000
  O3     O3        0.851263707627494    0.777649879068022    0.862096142722654  0.0000
  O1     O1        0.635892173867590    0.269259380770985    0.847342218937547  0.0000
  O3     O3        0.115887491414856    0.661911861096207    0.107742457324865  0.0000
  O1     O1        0.376261290779949    0.377837654328579    0.103501697258166  0.0000
  O1     O1        0.655120383612984    0.483108081012209    0.071981428269814  0.0000
  O3     O3        0.837560585993543    0.571754477457089    0.062516411829386  0.0000
  O1     O1        0.330794660145933    0.556555623054498    0.884514700228694  0.0000
  O1     O1        0.145855304216123    0.479690770465996    0.886760431901595  0.0000
  O1     O1        0.765104591546181    0.254364103280238    0.003706538838957  0.0000
  O3     O3        0.734546585937411    0.798670549070480    0.018792369870562  0.0000
  O1     O1        0.257688083603760    0.244657008661257    0.946056175884872  0.0000
  O1     O1        0.223675229936736    0.797314216890717    0.936055198167148  0.0000
