data_c00454.vasp
_audit_creation_method             Generated by GULP
_audit_author_name                 Salvador R. G. Balestra
_symmetry_space_group_name_H-M     'P 1             '
_symmetry_Int_Tables_number        1

loop_
_symmetry_equiv_pos_site_id
_symmetry_equiv_pos_as_xyz
_cell_length_a                       17.6345
_cell_length_b                        7.8139
_cell_length_c                       10.0027
_cell_angle_alpha                   89.4842
_cell_angle_beta                    91.7312
_cell_angle_gamma                   85.9191

loop_
_atom_site_label
_atom_site_type_symbol
_atom_site_fract_x
_atom_site_fract_y
_atom_site_fract_z
_atom_site_charge
  Ge     Ge        0.052090000000021    0.000000000000000    0.372269999999958  0.0000
  Ge     Ge        0.455825849096590    0.928925609646617    0.344028930055419  0.0000
  Ge     Ge        0.940573039342030    0.953046565871565    0.623695668579429  0.0000
  Ge     Ge        0.542850745071567    0.011732182529342    0.612103048142253  0.0000
  Ge     Ge        0.540244019814709    0.030839239830597    0.069204811167710  0.0000
  Ge     Ge        0.937695116763448    0.968854168932752    0.119439737952725  0.0000
  Ge     Ge        0.416468494215116    0.981162018490832    0.826099923677406  0.0000
  Ge     Ge        0.143689855499586    0.317265101311288    0.303497021999939  0.0000
  Ge     Ge        0.347716367319680    0.639485921632425    0.286894534808188  0.0000
  Ge     Ge        0.813661012314604    0.250278946356460    0.731422637022799  0.0000
  Ge     Ge        0.837644899743756    0.661890553341263    0.723618868523587  0.0000
  Ge     Ge        0.632911158908843    0.330178660546942    0.713511240628050  0.0000
  Ge     Ge        0.326198691500282    0.230392091971394    0.270718440567553  0.0000
  Ge     Ge        0.633149491030775    0.349297865774394    0.046021006455168  0.0000
  Ge     Ge        0.838510358267345    0.667219801789626    0.040642209090073  0.0000
  Ge     Ge        0.306503337182375    0.272068095218384    0.950744784716578  0.0000
  Ge     Ge        0.155407685429752    0.739228157475226    0.988633250651926  0.0000
  Ge     Ge        0.333630313385032    0.673962709984897    0.966621679290687  0.0000
  Ge     Ge        0.121855773481118    0.353464447790421    0.974329336722210  0.0000
  Ge     Ge        0.814064193414077    0.265135648967965    0.052866826677088  0.0000
  Si     Si        0.037161770260471    0.042844826667505    0.876870972684793  0.0000
  Si     Si        0.664444943694825    0.707998863417862    0.715279506798296  0.0000
  Si     Si        0.174476869343600    0.700202815797314    0.316808808670864  0.0000
  Si     Si        0.665557621765988    0.720413136626209    0.028009526587386  0.0000
  O1     O1        0.084594216692928    0.199614721534606    0.394299930924203  0.0000
  O1     O1        0.418130557033694    0.736016774840384    0.373108430477298  0.0000
  O1     O1        0.867093076537008    0.104812129158269    0.641079591703452  0.0000
  O3     O3        0.615462040740508    0.885726259363030    0.694914713891467  0.0000
  O1     O1        0.905572472803448    0.755121566892060    0.634142219157982  0.0000
  O1     O1        0.566927872157080    0.219124901330480    0.627610228497055  0.0000
  O3     O3        0.131795416846448    0.856328735325735    0.391353645934006  0.0000
  O1     O1        0.382965057641914    0.085989195064636    0.362433351697450  0.0000
  O1     O1        0.976100008986220    0.965938184394863    0.465553211365696  0.0000
  O1     O1        0.533232201615981    0.959105882464903    0.446584742011248  0.0000
  O1     O1        0.020467265061130    0.974443770545443    0.209201755551853  0.0000
  O1     O1        0.486231640131650    0.938683981317789    0.182179696994056  0.0000
  O3     O3        0.019811045353633    0.986241151116344    0.725916633771452  0.0000
  O1     O1        0.454461899458095    0.976920208418781    0.670092172360222  0.0000
  O1     O1        0.570575152898773    0.224675954933256    0.122467312376812  0.0000
  O1     O1        0.903104462034215    0.771242975112768    0.135201839911063  0.0000
  O1     O1        0.338708945202477    0.125028053662799    0.835826970566602  0.0000
  O3     O3        0.109657207845615    0.932888787972103    0.943493065821783  0.0000
  O1     O1        0.395215732664315    0.778852327445944    0.870550848719585  0.0000
  O3     O3        0.058450094698640    0.240259570779684    0.881305385355278  0.0000
  O3     O3        0.623526276985315    0.904080540622245    0.039730524552730  0.0000
  O1     O1        0.866548771687122    0.121684112342818    0.154944312045743  0.0000
  O1     O1        0.488888720260365    0.058903357724411    0.922886337742630  0.0000
  O3     O3        0.960742519410207    0.018001344900365    0.954613548565549  0.0000
  O3     O3        0.129638702339436    0.531253777219994    0.344302083002233  0.0000
  O1     O1        0.367158772504675    0.424193665519976    0.273778483750519  0.0000
  O1     O1        0.854590528345352    0.444068764887210    0.727634078036708  0.0000
  O3     O3        0.617868184495169    0.548734313962269    0.669321350714386  0.0000
  O1     O1        0.237221947010201    0.251019841271122    0.335437412851444  0.0000
  O3     O3        0.261774935294095    0.674269791142867    0.368089176442765  0.0000
  O1     O1        0.723118308847201    0.272195615181108    0.662939388931687  0.0000
  O3     O3        0.746636938052459    0.712926145086166    0.651527762426638  0.0000
  O1     O1        0.121060555883936    0.286211080394110    0.137321751813893  0.0000
  O1     O1        0.345116656247089    0.733641770340849    0.130091834861995  0.0000
  O1     O1        0.805536481706122    0.184997582036639    0.894148453898805  0.0000
  O2     O2        0.686854381581377    0.664327259438566    0.874038589279712  0.0000
  O1     O1        0.846309991409659    0.745420647646897    0.881024757927680  0.0000
  O1     O1        0.623340968554374    0.292601314760510    0.880692958316936  0.0000
  O3     O3        0.181161374241673    0.721797243813679    0.156848015286736  0.0000
  O1     O1        0.318382513724032    0.172185080473098    0.105202584808555  0.0000
  O3     O3        0.614188399638621    0.568654484567156    0.074508305129568  0.0000
  O1     O1        0.860501722786955    0.451961539661784    0.049689898182624  0.0000
  O1     O1        0.354308906476474    0.456403390228710    0.951088036915950  0.0000
  O1     O1        0.099161583348207    0.572108016988415    0.957138542981741  0.0000
  O1     O1        0.724199174767370    0.307289626754335    0.109292618038493  0.0000
  O3     O3        0.747527048763951    0.715248591453170    0.101535838925443  0.0000
  O1     O1        0.212770356931984    0.332507355585790    0.917053347833271  0.0000
  O1     O1        0.240878489982263    0.725690142112011    0.911788654668448  0.0000
