data_c00406.vasp
_audit_creation_method             Generated by GULP
_audit_author_name                 Salvador R. G. Balestra
_symmetry_space_group_name_H-M     'P 1             '
_symmetry_Int_Tables_number        1

loop_
_symmetry_equiv_pos_site_id
_symmetry_equiv_pos_as_xyz
_cell_length_a                       17.5846
_cell_length_b                        7.8327
_cell_length_c                       10.3016
_cell_angle_alpha                   89.7608
_cell_angle_beta                    90.0812
_cell_angle_gamma                   88.5265

loop_
_atom_site_label
_atom_site_type_symbol
_atom_site_fract_x
_atom_site_fract_y
_atom_site_fract_z
_atom_site_charge
  Ge     Ge        0.052090000000021    0.000000000000000    0.372269999999958  0.0000
  Ge     Ge        0.451367501410404    0.948153637435479    0.365745126863193  0.0000
  Ge     Ge        0.949868900692433    0.961902072957747    0.633206540713478  0.0000
  Ge     Ge        0.553497825627359    0.019948659140828    0.618349647981530  0.0000
  Ge     Ge        0.558629396606054    0.019895841854440    0.121619598109016  0.0000
  Ge     Ge        0.943730059228413    0.967655116405779    0.123438087394150  0.0000
  Ge     Ge        0.451004639684013    0.959854558821233    0.873449427704961  0.0000
  Ge     Ge        0.145481750651807    0.316696887396340    0.256922693110056  0.0000
  Ge     Ge        0.356083227659152    0.637157596448437    0.255231265417331  0.0000
  Ge     Ge        0.830741497491580    0.256051527272651    0.704044541491015  0.0000
  Ge     Ge        0.677819194057395    0.736275315777055    0.693204571629093  0.0000
  Ge     Ge        0.648313910093965    0.334691252025146    0.694714880006798  0.0000
  Ge     Ge        0.174559453803811    0.716493223770317    0.264632602918378  0.0000
  Ge     Ge        0.326591385566255    0.235630346621015    0.252829819736897  0.0000
  Ge     Ge        0.645460052736083    0.343628669134398    0.008415893433871  0.0000
  Ge     Ge        0.326023097093063    0.248097910737370    0.937264399125978  0.0000
  Ge     Ge        0.167751239881812    0.731442252723058    0.949956099213608  0.0000
  Ge     Ge        0.348684195357150    0.650270337084039    0.939073614759280  0.0000
  Ge     Ge        0.145799997375049    0.330002201937128    0.940349657266883  0.0000
  Ge     Ge        0.830070629679370    0.267369929445227    0.015846379210455  0.0000
  Si     Si        0.049121761707817    0.022925900795472    0.882782028442942  0.0000
  Si     Si        0.852190765071224    0.651640267257554    0.697943860630709  0.0000
  Si     Si        0.849626850473687    0.659356198136120    0.004071772855923  0.0000
  Si     Si        0.674614068489531    0.736595992077971    0.004819380182748  0.0000
  O1     O1        0.076953903298158    0.205393638901636    0.335803959738588  0.0000
  O1     O1        0.425036370948950    0.742257760621384    0.338918421236939  0.0000
  O1     O1        0.879435166608971    0.114327826999264    0.607162788081592  0.0000
  O1     O1        0.630019309591580    0.879951944589595    0.598430993840255  0.0000
  O3     O3        0.916459680298870    0.754986200882648    0.624889023803859  0.0000
  O1     O1        0.586322255961903    0.222755866576684    0.600426644345113  0.0000
  O1     O1        0.129631299846168    0.865530891714489    0.359635722825160  0.0000
  O1     O1        0.374307823360260    0.081065729191824    0.339369404011058  0.0000
  O1     O1        0.023997935484811    0.988918214257105    0.532221260115502  0.0000
  O1     O1        0.477137765139808    0.972378723634760    0.526429065870899  0.0000
  O1     O1        0.975742360893857    0.941253771662056    0.279415586730451  0.0000
  O1     O1        0.531876464890204    0.999265954926949    0.280900493332467  0.0000
  O3     O3        0.978112293452337    0.986569165463177    0.793427938172045  0.0000
  O1     O1        0.527616020539085    0.994937036043105    0.779310496001456  0.0000
  O1     O1        0.583043460361549    0.229177433936219    0.098850529274005  0.0000
  O3     O3        0.911319091292423    0.772169929881554    0.071819633297474  0.0000
  O1     O1        0.379188470147355    0.110045640555531    0.845620299345470  0.0000
  O3     O3        0.116391943198979    0.882023216920429    0.861741426745688  0.0000
  O1     O1        0.412576504851886    0.762595034934718    0.850317180319720  0.0000
  O3     O3        0.081289316145871    0.210422434804913    0.854948034262344  0.0000
  O3     O3        0.636791570148405    0.888368532574119    0.086086388982986  0.0000
  O1     O1        0.874452124050333    0.124566256838671    0.118810577773882  0.0000
  O1     O1        0.480420534827362    0.967580965543608    0.033528792077834  0.0000
  O3     O3        0.022595663413064    0.019656687384271    0.033046744736813  0.0000
  O1     O1        0.158963581452856    0.514127281227062    0.323725783317607  0.0000
  O1     O1        0.344506823424088    0.434973879501356    0.315143023485718  0.0000
  O3     O3        0.844524056958579    0.462493639780988    0.644018607578731  0.0000
  O1     O1        0.657954260334308    0.536052411865914    0.636115135097493  0.0000
  O1     O1        0.230627431799740    0.202096555878890    0.258575614680473  0.0000
  O1     O1        0.270569072644674    0.748996509064686    0.263276767131069  0.0000
  O1     O1        0.734818913985557    0.225297779637786    0.700119624981323  0.0000
  O3     O3        0.774564110282596    0.763999380334788    0.682184446031058  0.0000
  O1     O1        0.118920257783741    0.354485508781859    0.099172804287569  0.0000
  O1     O1        0.381833634126219    0.623021077458518    0.095206348038304  0.0000
  O1     O1        0.862083106089467    0.230497797115986    0.861179373470245  0.0000
  O3     O3        0.649881299446867    0.749560025356740    0.854667328880969  0.0000
  O2     O2        0.869086891180370    0.629944894108429    0.852267664976921  0.0000
  O1     O1        0.614126904714096    0.343885764003451    0.851066904549827  0.0000
  O1     O1        0.139220711586490    0.736759601184708    0.109082647469808  0.0000
  O1     O1        0.357898067695628    0.231016443222356    0.095081194980172  0.0000
  O3     O3        0.649670292793714    0.554053383411155    0.060599057223019  0.0000
  O3     O3        0.849263168634534    0.473290312693680    0.067893304537451  0.0000
  O1     O1        0.336153904839371    0.452126493621913    0.876375926987878  0.0000
  O1     O1        0.154079441909801    0.532681446140927    0.881400507232953  0.0000
  O1     O1        0.733643971259197    0.246321355527617    0.018761559224841  0.0000
  O2     O2        0.766268269795517    0.751494720513449    0.015068191184664  0.0000
  O1     O1        0.230340230939281    0.213840279881090    0.936413189571453  0.0000
  O1     O1        0.263682545481277    0.765742740746600    0.944858452364111  0.0000
