data_c00463.vasp
_audit_creation_method             Generated by GULP
_audit_author_name                 Salvador R. G. Balestra
_symmetry_space_group_name_H-M     'P 1             '
_symmetry_Int_Tables_number        1

loop_
_symmetry_equiv_pos_site_id
_symmetry_equiv_pos_as_xyz
_cell_length_a                       17.6490
_cell_length_b                        7.8046
_cell_length_c                       10.1885
_cell_angle_alpha                   89.5669
_cell_angle_beta                    91.1625
_cell_angle_gamma                   91.5188

loop_
_atom_site_label
_atom_site_type_symbol
_atom_site_fract_x
_atom_site_fract_y
_atom_site_fract_z
_atom_site_charge
  Ge     Ge        0.052090000000021    0.000000000000000    0.372269999999958  0.0000
  Ge     Ge        0.452336771186247    0.052357291504443    0.360815366647737  0.0000
  Ge     Ge        0.941003599585173    0.064844515140748    0.614377972309075  0.0000
  Ge     Ge        0.554964160731956    0.010182506508102    0.616897490572724  0.0000
  Ge     Ge        0.547919582692384    0.999760587071409    0.097435940422971  0.0000
  Ge     Ge        0.951453049915986    0.064833999395407    0.110666709483757  0.0000
  Ge     Ge        0.437890662552890    0.062478356502999    0.844905189970670  0.0000
  Ge     Ge        0.173824513042094    0.284057344476725    0.291615680740729  0.0000
  Ge     Ge        0.326332689655964    0.772765301825633    0.285952360909212  0.0000
  Ge     Ge        0.846904815087431    0.378216064558071    0.725162348364356  0.0000
  Ge     Ge        0.820072901504403    0.777044076335444    0.722982268967728  0.0000
  Ge     Ge        0.147088967261964    0.687636970174074    0.296045091139838  0.0000
  Ge     Ge        0.353439585803818    0.366480997534831    0.285638517001943  0.0000
  Ge     Ge        0.670198986891305    0.297168608134595    0.039067080623665  0.0000
  Ge     Ge        0.824430454057829    0.778072539601249    0.044851772036043  0.0000
  Ge     Ge        0.346344155172418    0.371763945325789    0.966557206423178  0.0000
  Ge     Ge        0.137588708149323    0.694166854372687    0.977658180038286  0.0000
  Ge     Ge        0.318445622060729    0.776911829478239    0.967251238416786  0.0000
  Ge     Ge        0.165048110550416    0.289607024587406    0.972669489841052  0.0000
  Ge     Ge        0.849905930882865    0.376150577888439    0.047944841837135  0.0000
  Si     Si        0.047507858694543    0.004650651943994    0.859946575484314  0.0000
  Si     Si        0.644492367471491    0.697179671310334    0.734382032038707  0.0000
  Si     Si        0.668567763985047    0.304160976625476    0.729050174971522  0.0000
  Si     Si        0.649552103611644    0.696978578663996    0.042830551151363  0.0000
  O1     O1        0.125819561820516    0.146092269296561    0.393370914696753  0.0000
  O1     O1        0.377829520615789    0.908952563764489    0.385096636511793  0.0000
  O1     O1        0.912305624752765    0.269228783691986    0.639388673726573  0.0000
  O3     O3        0.580921593256762    0.803279545792083    0.658760887247366  0.0000
  O1     O1        0.862740694113675    0.934115547398400    0.631931506567599  0.0000
  O3     O3        0.624041406089226    0.169012801511558    0.637419983770277  0.0000
  O1     O1        0.085647512868750    0.797242646358764    0.391796212937342  0.0000
  O1     O1        0.419522691686451    0.256373128782221    0.375834189940243  0.0000
  O1     O1        0.973267891027677    0.045107160769386    0.457121867136195  0.0000
  O1     O1        0.531730447870317    0.011977390929095    0.451888155410564  0.0000
  O1     O1        0.026553602222048    0.017367164434526    0.206857211379018  0.0000
  O1     O1        0.474043956374374    0.023700617053307    0.197294702286739  0.0000
  O3     O3        0.019075159641817    0.008189168603878    0.709175922845444  0.0000
  O1     O1        0.470348964464316    0.054563048590067    0.687018816211701  0.0000
  O1     O1        0.615847224230172    0.158998071381573    0.128035419581293  0.0000
  O1     O1        0.875779370138958    0.924112598659427    0.133689082189772  0.0000
  O1     O1        0.410368588075587    0.267465183537196    0.874991348137627  0.0000
  O3     O3        0.069338239057791    0.810597302659901    0.895351830744544  0.0000
  O1     O1        0.361545191375599    0.925779494805457    0.868185566146043  0.0000
  O3     O3        0.119105068440566    0.133930923186898    0.879212152310108  0.0000
  O3     O3        0.587454555424835    0.798297376014750    0.119635346566313  0.0000
  O1     O1        0.917172410635047    0.266331741154004    0.134181379120054  0.0000
  O1     O1        0.515674094679454    0.008441871072859    0.938033054908217  0.0000
  O3     O3        0.977763551314149    0.061577802481125    0.946773471601731  0.0000
  O1     O1        0.162635354869713    0.487064892289600    0.354718732373159  0.0000
  O1     O1        0.340041416526738    0.566600123216542    0.344035376354425  0.0000
  O1     O1        0.841535414011147    0.580648936077538    0.661246909904864  0.0000
  O2     O2        0.651940856108840    0.501611669586473    0.683602670200090  0.0000
  O1     O1        0.268902213901087    0.248058277285622    0.286771701788222  0.0000
  O1     O1        0.230758158770638    0.807233305912932    0.289243177162445  0.0000
  O3     O3        0.757880891003217    0.276042578502171    0.720689986500339  0.0000
  O3     O3        0.722942266225383    0.800666037696700    0.713801235112481  0.0000
  O1     O1        0.137311634736271    0.274510788885264    0.133075597911883  0.0000
  O1     O1        0.354423895600225    0.789592138534504    0.124867960693099  0.0000
  O1     O1        0.874941362551186    0.393899767330072    0.885918257636542  0.0000
  O2     O2        0.625812297524452    0.685474131359684    0.888253290687433  0.0000
  O1     O1        0.850383315877219    0.793383253005548    0.883263547622716  0.0000
  O3     O3        0.640503823613755    0.274147091879867    0.876340232743128  0.0000
  O1     O1        0.111672640000110    0.668730862417823    0.137833964074726  0.0000
  O1     O1        0.380976272422031    0.383525885352262    0.124981458524909  0.0000
  O3     O3        0.658559201831513    0.505543840503677    0.095142484183831  0.0000
  O1     O1        0.842164423110201    0.577409579841381    0.108000910567021  0.0000
  O1     O1        0.332591503176669    0.574393066432621    0.907407819051184  0.0000
  O1     O1        0.145220562976253    0.492222911768358    0.913886618681678  0.0000
  O1     O1        0.764794950618880    0.261126639648457    0.052997811662317  0.0000
  O3     O3        0.727893388075819    0.807193310562646    0.053577488595613  0.0000
  O1     O1        0.260607770426382    0.260117957280124    0.966480001377687  0.0000
  O1     O1        0.222490253941064    0.805775264137056    0.970595151424135  0.0000
