data_c00453.vasp
_audit_creation_method             Generated by GULP
_audit_author_name                 Salvador R. G. Balestra
_symmetry_space_group_name_H-M     'P 1             '
_symmetry_Int_Tables_number        1

loop_
_symmetry_equiv_pos_site_id
_symmetry_equiv_pos_as_xyz
_cell_length_a                       17.7886
_cell_length_b                        7.8726
_cell_length_c                       10.3758
_cell_angle_alpha                   89.5809
_cell_angle_beta                    90.0270
_cell_angle_gamma                   89.2361

loop_
_atom_site_label
_atom_site_type_symbol
_atom_site_fract_x
_atom_site_fract_y
_atom_site_fract_z
_atom_site_charge
  Ge     Ge        0.052090000000021    0.000000000000000    0.372269999999958  0.0000
  Ge     Ge        0.447338748970061    0.973062047403268    0.339907572614654  0.0000
  Ge     Ge        0.950312208368987    0.996520586596300    0.628276436142228  0.0000
  Ge     Ge        0.554084037665946    0.976578075373244    0.590420873955202  0.0000
  Ge     Ge        0.548176789208183    0.969525175031335    0.080487230873747  0.0000
  Ge     Ge        0.941331746722840    0.991377798057851    0.125324523262195  0.0000
  Ge     Ge        0.440878999678966    0.969619158464525    0.830135201983791  0.0000
  Ge     Ge        0.148109278952360    0.313244751657926    0.268603263722749  0.0000
  Ge     Ge        0.342767272593371    0.668416982347825    0.259668452593717  0.0000
  Ge     Ge        0.847997638591654    0.311800146208195    0.696260799314582  0.0000
  Ge     Ge        0.829540969945127    0.716790988897662    0.703942672477360  0.0000
  Ge     Ge        0.668330934222322    0.267719761015920    0.697876189075385  0.0000
  Ge     Ge        0.329704051276426    0.263034587471862    0.267305390677995  0.0000
  Ge     Ge        0.669169579029142    0.248326531770413    0.009761547877540  0.0000
  Ge     Ge        0.828942124903891    0.701000138737867    0.015920900699635  0.0000
  Ge     Ge        0.324520444222737    0.252541905866358    0.955990466950050  0.0000
  Ge     Ge        0.163409012774149    0.703825528345931    0.947116721741323  0.0000
  Ge     Ge        0.344353700004670    0.660185255572662    0.944497406615017  0.0000
  Ge     Ge        0.141898194547007    0.302153042287270    0.959295213556897  0.0000
  Ge     Ge        0.649951696463983    0.652041222587936    0.016826522937351  0.0000
  Si     Si        0.047412247812700    0.991135388368866    0.883700382763023  0.0000
  Si     Si        0.653181438956827    0.667573013102283    0.708702785090705  0.0000
  Si     Si        0.165844284204400    0.708824558061000    0.255211874333177  0.0000
  Si     Si        0.845202296374812    0.299910510215476    0.004059211218440  0.0000
  O1     O1        0.090515094633833    0.198188279578287    0.367012998154050  0.0000
  O1     O1        0.400707161328834    0.784473958343042    0.354357466675530  0.0000
  O1     O1        0.912928034049354    0.197553293768930    0.610630059560588  0.0000
  O3     O3        0.594480788865147    0.782177533151193    0.629248656260936  0.0000
  O1     O1        0.877471150474722    0.856564812467629    0.610211383977281  0.0000
  O1     O1        0.614925277581376    0.142046305654714    0.601574555425614  0.0000
  O3     O3        0.118119532445002    0.847683060554144    0.331763373040981  0.0000
  O1     O1        0.382386815241347    0.132970866806332    0.365530958168771  0.0000
  O1     O1        0.023866539254152    0.960376130993840    0.528258219557242  0.0000
  O1     O1        0.526430607517987    0.974305196017816    0.431381415636412  0.0000
  O1     O1        0.971807403414963    0.992903344423517    0.281445904960142  0.0000
  O1     O1        0.475210876820050    0.001509263897367    0.181610026107303  0.0000
  O3     O3        0.979014752494279    0.969585445244836    0.787407480920952  0.0000
  O1     O1        0.471912731272552    0.000153879730698    0.675148534822935  0.0000
  O1     O1        0.622501460734262    0.105940715999160    0.102347216422696  0.0000
  O1     O1        0.879213993223935    0.827721342350098    0.115696394721482  0.0000
  O1     O1        0.367234051734606    0.106781134741842    0.859338016159693  0.0000
  O3     O3        0.111916537615879    0.849271955618424    0.858938567843995  0.0000
  O1     O1        0.408531778047042    0.766617204819252    0.853546302731994  0.0000
  O3     O3        0.082984297122556    0.177096662649379    0.868459542661036  0.0000
  O1     O1        0.583346823731305    0.765694547414917    0.097976937219107  0.0000
  O3     O3        0.902486084849420    0.188116431770337    0.088189359347311  0.0000
  O1     O1        0.517095603803261    0.007394850325368    0.925825846201660  0.0000
  O3     O3        0.019310358348023    0.958896263125383    0.029422918101209  0.0000
  O3     O3        0.155970674506088    0.522128542482507    0.318434387015953  0.0000
  O1     O1        0.340703820765356    0.467517330677847    0.319997595742706  0.0000
  O1     O1        0.844468477262446    0.516759978598703    0.642923343865479  0.0000
  O3     O3        0.660715864500819    0.480057729950695    0.649895240266096  0.0000
  O1     O1        0.235718298489071    0.219118313096203    0.270846074393398  0.0000
  O3     O3        0.252974706653481    0.758881837233873    0.257210464719412  0.0000
  O1     O1        0.761912270003120    0.216203641187924    0.684648668172771  0.0000
  O3     O3        0.733647670071344    0.759476349907775    0.705942109295437  0.0000
  O1     O1        0.110636533469100    0.304734924171675    0.116107678340243  0.0000
  O1     O1        0.373681969535716    0.669295557196129    0.102623233367149  0.0000
  O3     O3        0.873902288472004    0.314649252816018    0.857869714460558  0.0000
  O3     O3        0.624856264071510    0.649378216951689    0.854779405475397  0.0000
  O1     O1        0.859720602505016    0.728521418284142    0.861088206900754  0.0000
  O1     O1        0.637931702574354    0.240959422288555    0.852857749595177  0.0000
  O3     O3        0.138302383589718    0.696438343144217    0.108347056581122  0.0000
  O1     O1        0.359992498782252    0.246634398583722    0.109961078141940  0.0000
  O1     O1        0.653348694155748    0.447870725914798    0.071802565748421  0.0000
  O3     O3        0.837074572445222    0.488001529768896    0.061374153889101  0.0000
  O1     O1        0.337976721392625    0.454177640680034    0.895195348769339  0.0000
  O1     O1        0.146142134220448    0.501420788065272    0.892984317280397  0.0000
  O3     O3        0.764896841672206    0.207199528588525    0.005283636439270  0.0000
  O1     O1        0.735138403826178    0.750354100456726    0.028347310412009  0.0000
  O1     O1        0.230298173823846    0.212466978760296    0.963465273952845  0.0000
  O1     O1        0.256116872812900    0.752241441823361    0.932155652308975  0.0000
