data_c00491.vasp
_audit_creation_method             Generated by GULP
_audit_author_name                 Salvador R. G. Balestra
_symmetry_space_group_name_H-M     'P 1             '
_symmetry_Int_Tables_number        1

loop_
_symmetry_equiv_pos_site_id
_symmetry_equiv_pos_as_xyz
_cell_length_a                       17.7911
_cell_length_b                        7.8000
_cell_length_c                       10.0744
_cell_angle_alpha                   91.9290
_cell_angle_beta                    89.8463
_cell_angle_gamma                   90.6198

loop_
_atom_site_label
_atom_site_type_symbol
_atom_site_fract_x
_atom_site_fract_y
_atom_site_fract_z
_atom_site_charge
  Ge     Ge        0.052090000000021    0.000000000000000    0.372269999999958  0.0000
  Ge     Ge        0.445583165947208    0.042444913380314    0.365189386850850  0.0000
  Ge     Ge        0.947541984385809    0.010177419038085    0.633787627001767  0.0000
  Ge     Ge        0.554263483073573    0.956040154251229    0.603640339442443  0.0000
  Ge     Ge        0.545600009031216    0.987362271721409    0.105931772086719  0.0000
  Ge     Ge        0.951558936369447    0.048784043202036    0.107365477801370  0.0000
  Ge     Ge        0.441916432709763    0.030462261403783    0.848922950553899  0.0000
  Ge     Ge        0.169256831042365    0.285893113065531    0.293492694938455  0.0000
  Ge     Ge        0.322028579126308    0.759844089716170    0.298692491073578  0.0000
  Ge     Ge        0.648801639359875    0.646696985196931    0.715275300403942  0.0000
  Ge     Ge        0.831448141315434    0.713858367293312    0.721774401909543  0.0000
  Ge     Ge        0.677642545674491    0.241996139604751    0.723264141455576  0.0000
  Ge     Ge        0.348699735286726    0.356003936042944    0.294385296974979  0.0000
  Ge     Ge        0.673393290873566    0.267951698305252    0.053300945274832  0.0000
  Ge     Ge        0.827898297086010    0.758300498862714    0.040322084041870  0.0000
  Ge     Ge        0.348363212630823    0.348749358507197    0.970000681398529  0.0000
  Ge     Ge        0.322247637144999    0.752513058530021    0.973156461245780  0.0000
  Ge     Ge        0.166465994105213    0.280312850942008    0.973832803741204  0.0000
  Ge     Ge        0.650060082868998    0.677274989766956    0.037279414077479  0.0000
  Ge     Ge        0.844035417564448    0.358104187714547    0.060722860835685  0.0000
  Si     Si        0.057556244846832    0.980611107099056    0.864232998032852  0.0000
  Si     Si        0.847949739491367    0.324516842890545    0.736021685551610  0.0000
  Si     Si        0.149010646416162    0.685701742171715    0.298180759681078  0.0000
  Si     Si        0.147295856712232    0.680467589027209    0.985169752061718  0.0000
  O1     O1        0.121334850065377    0.153683214437097    0.396265665629619  0.0000
  O1     O1        0.372264939978064    0.902849368702804    0.394982681633598  0.0000
  O3     O3        0.918287399058561    0.207153469513306    0.700242026685196  0.0000
  O1     O1        0.582816124517030    0.749533445258437    0.622983330193049  0.0000
  O1     O1        0.880093832877999    0.854782749222564    0.624832659739991  0.0000
  O1     O1        0.631805003912358    0.079882704163948    0.639697749493015  0.0000
  O3     O3        0.087147582192082    0.792536509865647    0.379371934306316  0.0000
  O1     O1        0.411880495346922    0.246442792170128    0.387497764414153  0.0000
  O1     O1        0.976832269220013    0.035504844877672    0.472189262225576  0.0000
  O1     O1        0.526943717252482    0.993103768907096    0.442822202378641  0.0000
  O1     O1        0.024025976143227    0.017671479112547    0.209882163740049  0.0000
  O1     O1        0.466845043746349    0.020150783889326    0.197092939524743  0.0000
  O3     O3        0.030219849744855    0.954370310972498    0.713273287817629  0.0000
  O1     O1        0.472822506516655    0.008815247491064    0.687620261028496  0.0000
  O1     O1        0.612035084494887    0.145596585856424    0.139645925958770  0.0000
  O1     O1        0.877064832006865    0.911906705328656    0.130172218870867  0.0000
  O1     O1        0.413804868132440    0.238297978217251    0.878399786457426  0.0000
  O2     O2        0.084808238002047    0.797755265869652    0.918560273847273  0.0000
  O1     O1        0.365143901739286    0.901716800187232    0.878894321331366  0.0000
  O3     O3        0.121019393655110    0.128646015859954    0.873312357286786  0.0000
  O1     O1        0.586355729749414    0.792002348409084    0.129883943725460  0.0000
  O1     O1        0.919324240061617    0.257344677024330    0.122109262586049  0.0000
  O1     O1        0.519038363648999    0.983600302868693    0.940950393560746  0.0000
  O3     O3        0.983090290512079    0.034232711099910    0.944341732213237  0.0000
  O3     O3        0.158550546636411    0.497675512826429    0.352500959820746  0.0000
  O1     O1        0.339158146566934    0.559437875108180    0.357536083994079  0.0000
  O3     O3        0.850346247678761    0.505180654363820    0.663375833432998  0.0000
  O1     O1        0.654576258592789    0.436611911452331    0.660698055006693  0.0000
  O1     O1        0.263722694108474    0.246467166823627    0.292670708083045  0.0000
  O3     O3        0.226426707306612    0.795324485018432    0.307661732148760  0.0000
  O3     O3        0.773470004201408    0.213087760071187    0.699837922979954  0.0000
  O1     O1        0.736262386019081    0.743151047952168    0.709490993628061  0.0000
  O1     O1        0.136243301266159    0.257765854310441    0.133432142934512  0.0000
  O1     O1        0.350633841974684    0.771104585650391    0.135616360443866  0.0000
  O3     O3        0.840226652459123    0.387288099742014    0.889664474645550  0.0000
  O1     O1        0.618356142915584    0.649222682202201    0.876913452581057  0.0000
  O1     O1        0.861928593779777    0.762406439661652    0.880011469641363  0.0000
  O1     O1        0.653033155083684    0.234079782065314    0.887438667274168  0.0000
  O2     O2        0.128672005876203    0.659889838579427    0.141304971927789  0.0000
  O1     O1        0.378091936815188    0.365252596966097    0.131978434834596  0.0000
  O1     O1        0.663925326316929    0.481578169423850    0.101272345513523  0.0000
  O1     O1        0.840773566452263    0.566256455886519    0.117672355080120  0.0000
  O1     O1        0.342414597888903    0.551227882187300    0.910408814007954  0.0000
  O3     O3        0.149095394416279    0.488944874097283    0.922488308892319  0.0000
  O1     O1        0.765864023521948    0.231323354899191    0.088584658941061  0.0000
  O1     O1        0.733031806613342    0.794832999224887    0.033741302454363  0.0000
  O1     O1        0.261327868979340    0.249277555717730    0.963957523421303  0.0000
  O3     O3        0.225840029678964    0.778877896187986    0.968355947376919  0.0000
