data_c00409.vasp
_audit_creation_method             Generated by GULP
_audit_author_name                 Salvador R. G. Balestra
_symmetry_space_group_name_H-M     'P 1             '
_symmetry_Int_Tables_number        1

loop_
_symmetry_equiv_pos_site_id
_symmetry_equiv_pos_as_xyz
_cell_length_a                       17.7273
_cell_length_b                        7.8154
_cell_length_c                       10.1371
_cell_angle_alpha                   88.3253
_cell_angle_beta                    90.3823
_cell_angle_gamma                   88.6684

loop_
_atom_site_label
_atom_site_type_symbol
_atom_site_fract_x
_atom_site_fract_y
_atom_site_fract_z
_atom_site_charge
  Ge     Ge        0.052090000000021    0.000000000000000    0.372269999999958  0.0000
  Ge     Ge        0.452894523149781    0.962977348355102    0.361691103009540  0.0000
  Ge     Ge        0.952850176928493    0.973854510758041    0.633883706542726  0.0000
  Ge     Ge        0.559637708862876    0.044486725620748    0.605553536907231  0.0000
  Ge     Ge        0.553722518985080    0.026900239390822    0.105606946201104  0.0000
  Ge     Ge        0.955968356036789    0.960352357262938    0.099225601348965  0.0000
  Ge     Ge        0.448096080296243    0.984058209898802    0.849843759091001  0.0000
  Ge     Ge        0.147241316090817    0.320548950126712    0.291683342470495  0.0000
  Ge     Ge        0.355324996884726    0.650931336322420    0.296285125368104  0.0000
  Ge     Ge        0.836440319771739    0.275295306163708    0.727481029937775  0.0000
  Ge     Ge        0.683408633027355    0.755477135019716    0.722072486132588  0.0000
  Ge     Ge        0.654137665654897    0.351772021625811    0.721310292069917  0.0000
  Ge     Ge        0.176967293506968    0.724931044906859    0.295851540601670  0.0000
  Ge     Ge        0.328106117732963    0.247281175619416    0.289801001572526  0.0000
  Ge     Ge        0.655057179893958    0.338829479783147    0.044402278137409  0.0000
  Ge     Ge        0.330516626086300    0.268478517506314    0.971540833106564  0.0000
  Ge     Ge        0.351767039124853    0.670687892154433    0.972267635928036  0.0000
  Ge     Ge        0.148788876013243    0.343057787329385    0.975738010669509  0.0000
  Ge     Ge        0.681385578849898    0.742375790010943    0.050337465661720  0.0000
  Ge     Ge        0.835521212860683    0.259599429701576    0.045125214100748  0.0000
  Si     Si        0.064357308052611    0.032542228968804    0.859191354114816  0.0000
  Si     Si        0.853531482848425    0.666214964140563    0.734704498376013  0.0000
  Si     Si        0.850924504453958    0.651438169167753    0.048822214581374  0.0000
  Si     Si        0.174734809463701    0.739365023254705    0.979137468757110  0.0000
  O1     O1        0.084177579314805    0.204813434254987    0.383545915915353  0.0000
  O1     O1        0.421496414673571    0.758066606667451    0.384760111352752  0.0000
  O1     O1        0.885598885963731    0.132452036865443    0.633340859961596  0.0000
  O1     O1        0.637596310175328    0.916187260126934    0.636337624965998  0.0000
  O3     O3        0.924844137593113    0.777200411998328    0.698558153381200  0.0000
  O1     O1        0.586957269283118    0.249564069067103    0.631853806057140  0.0000
  O1     O1        0.128120254521480    0.860047743780726    0.393369587527239  0.0000
  O1     O1        0.378205109459171    0.102183306490955    0.386631869870115  0.0000
  O1     O1        0.977879334154697    0.954135754016229    0.470935480337545  0.0000
  O1     O1        0.532615166691929    0.015259914551095    0.444132659909033  0.0000
  O1     O1        0.026829156109945    0.965231892766139    0.210077614425728  0.0000
  O1     O1        0.476691590381703    0.981533465143181    0.195833802069755  0.0000
  O3     O3        0.038719112628116    0.018085393495797    0.708091032848320  0.0000
  O1     O1        0.479365076672034    0.990554020838183    0.689626169858050  0.0000
  O1     O1        0.590126339728091    0.225204785777426    0.131913694832589  0.0000
  O3     O3        0.922314633079047    0.752118891234776    0.094932802221187  0.0000
  O1     O1        0.374436445636039    0.125656293549509    0.871832358428095  0.0000
  O2     O2        0.129656844391229    0.892784808849300    0.900600199407916  0.0000
  O1     O1        0.416378326581352    0.781579137162966    0.883533740836191  0.0000
  O3     O3        0.091360019166320    0.225104243545646    0.876505186055105  0.0000
  O1     O1        0.627203164985492    0.881212992433423    0.135534469707294  0.0000
  O1     O1        0.886709985795479    0.108731265494137    0.135888935186279  0.0000
  O1     O1        0.526459822830833    0.025726955973134    0.941678175161891  0.0000
  O3     O3        0.988740385034651    0.999914413235067    0.941379934042331  0.0000
  O1     O1        0.161379511596520    0.517892775036918    0.352289574393656  0.0000
  O1     O1        0.342961999861291    0.447058872599276    0.353521571807924  0.0000
  O3     O3        0.855525256549111    0.482664895146614    0.668697163436168  0.0000
  O1     O1        0.660360951403484    0.559427459156831    0.663701542182727  0.0000
  O1     O1        0.233373950636226    0.211067096800474    0.287736370532503  0.0000
  O1     O1        0.271101609413596    0.765453905492507    0.303303339582155  0.0000
  O1     O1        0.741012264253606    0.248527219408136    0.713970283633161  0.0000
  O3     O3        0.779531689978326    0.779568461494289    0.695893585705844  0.0000
  O1     O1        0.112957755554846    0.337255846413977    0.131805709150018  0.0000
  O1     O1        0.381310943660272    0.647121984877106    0.132983845031998  0.0000
  O1     O1        0.866202109829384    0.234830822764592    0.886071448502741  0.0000
  O1     O1        0.660237456513246    0.770762105896794    0.885300443672103  0.0000
  O2     O2        0.844947135957436    0.615000312721506    0.890980178971661  0.0000
  O1     O1        0.626144701506869    0.358333453982142    0.882305516137549  0.0000
  O3     O3        0.149471574688412    0.733328298186243    0.130419280974498  0.0000
  O1     O1        0.363253418210347    0.244180256077044    0.131160879825830  0.0000
  O1     O1        0.662756398613995    0.537544430156293    0.105771578770880  0.0000
  O3     O3        0.850665527674904    0.460695502062645    0.110860332111059  0.0000
  O1     O1        0.346273568007017    0.471235182613561    0.909119417604430  0.0000
  O3     O3        0.156934333008709    0.554346608586539    0.919648645622451  0.0000
  O1     O1        0.740501048971955    0.227310399290080    0.048653314348283  0.0000
  O3     O3        0.777125315841427    0.766680220436124    0.080367806635472  0.0000
  O1     O1        0.235227906001765    0.242144098687069    0.977607440959648  0.0000
  O3     O3        0.263386333473423    0.773385376850517    0.968321153325680  0.0000
