data_c00458.vasp
_audit_creation_method             Generated by GULP
_audit_author_name                 Salvador R. G. Balestra
_symmetry_space_group_name_H-M     'P 1             '
_symmetry_Int_Tables_number        1

loop_
_symmetry_equiv_pos_site_id
_symmetry_equiv_pos_as_xyz
_cell_length_a                       17.7756
_cell_length_b                        7.7934
_cell_length_c                       10.0816
_cell_angle_alpha                   88.9690
_cell_angle_beta                    90.7588
_cell_angle_gamma                   90.4950

loop_
_atom_site_label
_atom_site_type_symbol
_atom_site_fract_x
_atom_site_fract_y
_atom_site_fract_z
_atom_site_charge
  Ge     Ge        0.052090000000021    0.000000000000000    0.372269999999958  0.0000
  Ge     Ge        0.445720969413513    0.039866231588711    0.370590404469499  0.0000
  Ge     Ge        0.941238284507307    0.069319328793481    0.616706059214200  0.0000
  Ge     Ge        0.548291428652842    0.015712726574626    0.628280216892378  0.0000
  Ge     Ge        0.540327650026648    0.991053379868636    0.101354394155746  0.0000
  Ge     Ge        0.946577482762570    0.052757997767520    0.115956214596920  0.0000
  Ge     Ge        0.428158229181845    0.060720469992598    0.851210795716503  0.0000
  Ge     Ge        0.168805203150844    0.292323343442163    0.303474833827329  0.0000
  Ge     Ge        0.322296001595570    0.766035788951781    0.290728462969880  0.0000
  Ge     Ge        0.846420941406298    0.382723506634814    0.723720616508451  0.0000
  Ge     Ge        0.816694707415320    0.787732837528007    0.726522450143283  0.0000
  Ge     Ge        0.663642602052113    0.314090507324345    0.723620569746766  0.0000
  Ge     Ge        0.347326535319344    0.358099683455729    0.295550462507973  0.0000
  Ge     Ge        0.664747755781811    0.278091893642007    0.041873692778253  0.0000
  Ge     Ge        0.818691877067156    0.771641060265339    0.056548325718508  0.0000
  Ge     Ge        0.136054698303780    0.697177279326796    0.983261594037739  0.0000
  Ge     Ge        0.314761957201868    0.765142554009695    0.970372687413863  0.0000
  Ge     Ge        0.159491323528561    0.291912524824503    0.982464749278859  0.0000
  Ge     Ge        0.648877355728330    0.679265910637579    0.058450308075070  0.0000
  Ge     Ge        0.842422663420069    0.361289361015741    0.044962484202586  0.0000
  Si     Si        0.044895947155926    0.010605844060177    0.866184598639227  0.0000
  Si     Si        0.646963298404921    0.703482901681978    0.734622929683499  0.0000
  Si     Si        0.147551717175212    0.690027326666387    0.298847973772062  0.0000
  Si     Si        0.335633597281973    0.361644977962470    0.979385247151881  0.0000
  O1     O1        0.118148524299701    0.156763562724942    0.404140895664286  0.0000
  O1     O1        0.368990243380197    0.904698122145776    0.391018597660273  0.0000
  O1     O1        0.912619648830837    0.276584977815465    0.634105822480544  0.0000
  O3     O3        0.575888411727233    0.821390592433962    0.701342212863454  0.0000
  O1     O1        0.862606516581709    0.946613609474131    0.642413982824451  0.0000
  O1     O1        0.616086370689316    0.170456995467366    0.625072157707718  0.0000
  O3     O3        0.091698132011067    0.797534906763371    0.388767364939255  0.0000
  O1     O1        0.414555652272475    0.247457480100986    0.383335064918498  0.0000
  O1     O1        0.972126493492587    0.029739214393095    0.459357863480362  0.0000
  O1     O1        0.522267640203339    0.986476323401894    0.463536818739479  0.0000
  O1     O1        0.025333424888918    0.018580449742170    0.207288038666973  0.0000
  O1     O1        0.468172727034823    0.018327376469838    0.205223327054886  0.0000
  O3     O3        0.019657659362329    0.016099399569816    0.712961698676656  0.0000
  O1     O1        0.463006248583203    0.072552433587236    0.692969394165770  0.0000
  O1     O1        0.615165777055929    0.127003760425607    0.130442953658824  0.0000
  O1     O1        0.880181705050242    0.895047521705591    0.144418362919294  0.0000
  O3     O3        0.392263526014546    0.259209426910809    0.888931921738113  0.0000
  O3     O3        0.066022817686337    0.815525064963454    0.907108854468058  0.0000
  O1     O1        0.361612934503547    0.900766494783572    0.864656631281082  0.0000
  O3     O3        0.115982195857878    0.136392055917593    0.888887585102357  0.0000
  O1     O1        0.571438647196380    0.780794881196378    0.110685510363872  0.0000
  O1     O1        0.905126095312125    0.247587463660333    0.141037280126599  0.0000
  O1     O1        0.508172978926016    0.019286439836923    0.941442536572862  0.0000
  O3     O3        0.973125037867185    0.065016577887973    0.949688272852475  0.0000
  O3     O3        0.160674335103669    0.501858608880358    0.359760428316135  0.0000
  O1     O1        0.341121894129151    0.562201043765868    0.350241563936171  0.0000
  O1     O1        0.840218747407010    0.590759363958643    0.666932742874000  0.0000
  O3     O3        0.643281796957446    0.520788934043717    0.662997052201804  0.0000
  O1     O1        0.262783175849666    0.248651185317914    0.308288626863839  0.0000
  O3     O3        0.225843985680826    0.796150456693117    0.289159445048391  0.0000
  O1     O1        0.758921735825275    0.285333005219095    0.715793654584217  0.0000
  O3     O3        0.720735627225473    0.814330563596842    0.696973991111098  0.0000
  O1     O1        0.133114608575929    0.273422328213672    0.144769099539406  0.0000
  O1     O1        0.349846232068544    0.790807065169402    0.127757170638152  0.0000
  O1     O1        0.875147355404423    0.387920575198772    0.886376847915679  0.0000
  O3     O3        0.656732223938810    0.644195265410461    0.888187803644545  0.0000
  O1     O1        0.838911766582544    0.804439545873780    0.891685605046971  0.0000
  O1     O1        0.631405000602978    0.270240853036332    0.880281554188578  0.0000
  O3     O3        0.115437775744354    0.668774875857661    0.149734912412751  0.0000
  O3     O3        0.369103780843973    0.371053800143141    0.127817812976110  0.0000
  O1     O1        0.650657852919194    0.472831837360660    0.117282928596477  0.0000
  O1     O1        0.827203393922816    0.559121670271389    0.106469609885213  0.0000
  O3     O3        0.324144979438315    0.553002092792654    0.922396356380530  0.0000
  O1     O1        0.138194708271851    0.493464604255704    0.921151442622921  0.0000
  O1     O1        0.759771055361261    0.242278930556859    0.038572411771303  0.0000
  O1     O1        0.725924586407935    0.808664496702031    0.090465259370595  0.0000
  O3     O3        0.255840164398501    0.261525527879995    0.980984250421661  0.0000
  O1     O1        0.219938241838937    0.803460295216746    0.964248407556636  0.0000
