data_c00485.vasp
_audit_creation_method             Generated by GULP
_audit_author_name                 Salvador R. G. Balestra
_symmetry_space_group_name_H-M     'P 1             '
_symmetry_Int_Tables_number        1

loop_
_symmetry_equiv_pos_site_id
_symmetry_equiv_pos_as_xyz
_cell_length_a                       17.6080
_cell_length_b                        7.8279
_cell_length_c                       10.2482
_cell_angle_alpha                   89.7503
_cell_angle_beta                    90.5126
_cell_angle_gamma                   91.4244

loop_
_atom_site_label
_atom_site_type_symbol
_atom_site_fract_x
_atom_site_fract_y
_atom_site_fract_z
_atom_site_charge
  Ge     Ge        0.052090000000021    0.000000000000000    0.372269999999958  0.0000
  Ge     Ge        0.443874842138599    0.056006363136478    0.369139391232789  0.0000
  Ge     Ge        0.948621025490969    0.062665596287343    0.626328816761923  0.0000
  Ge     Ge        0.550615897720574    0.011152061078055    0.619672973029316  0.0000
  Ge     Ge        0.557480279580373    0.009003070819334    0.131321263040242  0.0000
  Ge     Ge        0.946775638492253    0.059617402422411    0.117734923111154  0.0000
  Ge     Ge        0.450826819052264    0.068847867950361    0.878231375931663  0.0000
  Ge     Ge        0.173935366406768    0.286633939460342    0.257948847316292  0.0000
  Ge     Ge        0.327015774384301    0.758705189939451    0.261931929284944  0.0000
  Ge     Ge        0.647555765396630    0.695227532156962    0.687837407256251  0.0000
  Ge     Ge        0.828307978551801    0.767743423506578    0.692521993376296  0.0000
  Ge     Ge        0.674256760580433    0.293653822761734    0.697812068654274  0.0000
  Ge     Ge        0.144240743869013    0.685289788755637    0.263617527087376  0.0000
  Ge     Ge        0.676955409878074    0.295939984883320    0.014559071096185  0.0000
  Ge     Ge        0.346919899302169    0.376013662154774    0.935718371903731  0.0000
  Ge     Ge        0.145338445874043    0.699154306868394    0.947218276144195  0.0000
  Ge     Ge        0.326614134482773    0.779546881402540    0.948659295238252  0.0000
  Ge     Ge        0.167767847063599    0.296218722726413    0.939430681571468  0.0000
  Ge     Ge        0.651423610774782    0.698889528660264    0.007229855351198  0.0000
  Ge     Ge        0.857403172978303    0.379650258309492    0.003759619849232  0.0000
  Si     Si        0.049768305545262    0.005678679880662    0.875962635808107  0.0000
  Si     Si        0.851957478870348    0.372022962450111    0.696279323313727  0.0000
  Si     Si        0.350428644776234    0.364213910716088    0.249224769594662  0.0000
  Si     Si        0.829500237063354    0.775658419214985    0.002472200358523  0.0000
  O1     O1        0.131575852803535    0.125008458530277    0.343148063398255  0.0000
  O1     O1        0.374495941046591    0.900042629110138    0.362000722027066  0.0000
  O3     O3        0.908622232667948    0.262002297479369    0.610301468035914  0.0000
  O1     O1        0.582006695134828    0.807202872737488    0.599284461057793  0.0000
  O1     O1        0.880963904686239    0.904489191070513    0.597968091765456  0.0000
  O1     O1        0.628129361661375    0.148040501659223    0.601203223313730  0.0000
  O1     O1        0.078438012400559    0.792520022026108    0.351923555735863  0.0000
  O3     O3        0.414198140465377    0.256077089149040    0.322035438515103  0.0000
  O1     O1        0.025249969812204    0.038796915521947    0.530290351756488  0.0000
  O1     O1        0.473137293186834    0.064600005928127    0.530566470399346  0.0000
  O1     O1        0.974357188031590    0.047955412694373    0.277975737955559  0.0000
  O1     O1        0.525578251065915    0.006100659522179    0.289259162123222  0.0000
  O3     O3        0.976789898114743    0.038495366960450    0.788335275463430  0.0000
  O1     O1        0.525643514866605    0.028972001975987    0.782506312397392  0.0000
  O1     O1        0.633201958775056    0.148705906826443    0.113240689354773  0.0000
  O3     O3        0.871442625286866    0.918737780802087    0.089593645974292  0.0000
  O1     O1        0.414524758923203    0.269618912968343    0.853638080197886  0.0000
  O3     O3        0.084495482295517    0.820341513889106    0.852839706713357  0.0000
  O1     O1        0.376801278529690    0.922769741944854    0.856260122271078  0.0000
  O3     O3        0.114239551484166    0.151585105825165    0.849335383753096  0.0000
  O1     O1        0.586829744434112    0.807099482513624    0.094695175743638  0.0000
  O1     O1        0.923452338708416    0.268809780860900    0.089465752616768  0.0000
  O1     O1        0.480764475053829    0.064721156603470    0.038582790577948  0.0000
  O3     O3        0.025620034925691    0.010221729355136    0.027836418118484  0.0000
  O1     O1        0.154102178980285    0.481999235903347    0.323827059121348  0.0000
  O3     O3        0.341466656972838    0.549283108411275    0.313924833409190  0.0000
  O3     O3        0.840428644900820    0.559290721894589    0.637811152049389  0.0000
  O1     O1        0.655789453496537    0.491967046112643    0.632708070462710  0.0000
  O3     O3        0.271153310633202    0.256975706278306    0.257005013421776  0.0000
  O1     O1        0.231367068310140    0.790735744081365    0.266589310500995  0.0000
  O3     O3        0.771615927307856    0.268075281051655    0.703260225881522  0.0000
  O1     O1        0.733673410375803    0.805973643428257    0.680298837901036  0.0000
  O1     O1        0.141183784014528    0.285320946636909    0.099866370770174  0.0000
  O1     O1        0.360663365631960    0.791950251280957    0.107038449068418  0.0000
  O3     O3        0.885141374716494    0.390511787048892    0.842408810383636  0.0000
  O1     O1        0.620526057151542    0.683718208922794    0.848604969605671  0.0000
  O3     O3        0.857610048062947    0.787558940360225    0.853816568204965  0.0000
  O1     O1        0.643368858481055    0.278069959975416    0.856637134675885  0.0000
  O1     O1        0.113795341824627    0.672435118696424    0.103986107936328  0.0000
  O3     O3        0.371751161798858    0.397281851107574    0.099577038473440  0.0000
  O1     O1        0.659743347284750    0.498240911169027    0.070599843095642  0.0000
  O3     O3        0.847600260883872    0.587006985166477    0.058278918798077  0.0000
  O1     O1        0.337660924474412    0.579685359198055    0.880874695553057  0.0000
  O1     O1        0.154426202668982    0.501050765100730    0.880998125303515  0.0000
  O1     O1        0.773053918956080    0.268506774575277    0.017412805860942  0.0000
  O3     O3        0.739581590087787    0.804250897070486    0.006105433211666  0.0000
  O1     O1        0.262851967036586    0.259084844649156    0.926335309766733  0.0000
  O1     O1        0.230819737082707    0.811255793335757    0.953897796759853  0.0000
