data_c00400.vasp
_audit_creation_method             Generated by GULP
_audit_author_name                 Salvador R. G. Balestra
_symmetry_space_group_name_H-M     'P 1             '
_symmetry_Int_Tables_number        1

loop_
_symmetry_equiv_pos_site_id
_symmetry_equiv_pos_as_xyz
_cell_length_a                       17.5459
_cell_length_b                        7.7312
_cell_length_c                       10.5098
_cell_angle_alpha                   86.5895
_cell_angle_beta                    89.8984
_cell_angle_gamma                   89.7849

loop_
_atom_site_label
_atom_site_type_symbol
_atom_site_fract_x
_atom_site_fract_y
_atom_site_fract_z
_atom_site_charge
  Ge     Ge        0.052090000000021    0.000000000000000    0.372269999999958  0.0000
  Ge     Ge        0.465050982043197    0.052112278750889    0.380614463055689  0.0000
  Ge     Ge        0.965375814571845    0.057190708921508    0.640896694038787  0.0000
  Ge     Ge        0.560240984025005    0.117168490360442    0.644841513061910  0.0000
  Ge     Ge        0.578141683631640    0.010301331413536    0.132058107182410  0.0000
  Ge     Ge        0.970418495562651    0.990707709648856    0.090301510886615  0.0000
  Ge     Ge        0.460501967618557    0.058812590254192    0.904637412259132  0.0000
  Ge     Ge        0.185191566741347    0.272567494774366    0.293681042665349  0.0000
  Ge     Ge        0.340635577132776    0.780343855506063    0.298809196381041  0.0000
  Ge     Ge        0.850930256939159    0.364504910631607    0.702559481710239  0.0000
  Ge     Ge        0.689527236238596    0.826434984891874    0.761144819422785  0.0000
  Ge     Ge        0.666583001878137    0.410656364205176    0.716788201664534  0.0000
  Ge     Ge        0.159581177824078    0.711838137413238    0.271836887928363  0.0000
  Ge     Ge        0.353866686520966    0.371110002426194    0.314560973662146  0.0000
  Ge     Ge        0.670583806223599    0.340144608994069    0.018801490221538  0.0000
  Ge     Ge        0.873693666437138    0.652504610258684    0.044422163061336  0.0000
  Ge     Ge        0.159210487068852    0.698058692751873    0.974487997928069  0.0000
  Ge     Ge        0.351380012627386    0.754285848643447    0.993710261234308  0.0000
  Ge     Ge        0.193305401595645    0.285945126723727    0.983770718554418  0.0000
  Ge     Ge        0.702316608617347    0.743798803137266    0.062186112146503  0.0000
  Si     Si        0.085857503874022    0.028936040398576    0.855724973624196  0.0000
  Si     Si        0.858688277455602    0.748903958221369    0.743329419567218  0.0000
  Si     Si        0.365192979032399    0.369499834754241    0.006089726330739  0.0000
  Si     Si        0.851855900673754    0.272558604418128    0.006720430444092  0.0000
  O1     O1        0.119194227192079    0.160987549712092    0.385111328632505  0.0000
  O1     O1        0.385099873869128    0.923854549724471    0.391637874353236  0.0000
  O1     O1        0.908577557486724    0.235465711156072    0.615673012055253  0.0000
  O1     O1        0.635522837858200    0.983227203806236    0.686669501083186  0.0000
  O3     O3        0.924430112853691    0.890170105078113    0.735411027341442  0.0000
  O1     O1        0.599862259260854    0.320149967182265    0.621465422155939  0.0000
  O1     O1        0.094834577251011    0.800280313536088    0.371147047788384  0.0000
  O1     O1        0.435642690301047    0.265255321471888    0.357253459543460  0.0000
  O1     O1        0.986916375385973    0.992811645023306    0.492733201346795  0.0000
  O1     O1        0.522338548378153    0.036649170281198    0.510865571498228  0.0000
  O1     O1        0.004469716015871    0.047580992162617    0.231534049282904  0.0000
  O1     O1        0.514061261560982    0.983385442158431    0.252764070115501  0.0000
  O3     O3        0.050235527022088    0.090551582170698    0.720542912732605  0.0000
  O1     O1        0.487239153426505    0.125670509523845    0.754027025529228  0.0000
  O1     O1        0.613970534344300    0.217880673263455    0.120014195978073  0.0000
  O1     O1        0.950329466112112    0.772291676803974    0.083610130372034  0.0000
  O3     O3        0.432764945962017    0.233310304274756    0.994680987638962  0.0000
  O3     O3        0.108843235078787    0.825425900660244    0.862167623520414  0.0000
  O1     O1        0.388094800172355    0.913359192810554    0.892327060578492  0.0000
  O3     O3        0.161612996718144    0.136455656037267    0.880706865244921  0.0000
  O1     O1        0.650903198033982    0.865583226775041    0.162817479128780  0.0000
  O3     O3        0.881962571552357    0.091604946214108    0.067014458257200  0.0000
  O1     O1        0.534672674701978    0.966696440714498    0.989322880505934  0.0000
  O3     O3        0.026550382887707    0.071935553969158    0.967051553366874  0.0000
  O1     O1        0.172305719177400    0.494890967516451    0.294154177736482  0.0000
  O1     O1        0.355603730301803    0.574775281263094    0.368505359941609  0.0000
  O3     O3        0.884423888802253    0.575337124096480    0.677218989414925  0.0000
  O1     O1        0.651314902676229    0.625510612890095    0.736290854236545  0.0000
  O1     O1        0.275198993420923    0.248093971222605    0.356958830380148  0.0000
  O1     O1        0.244135619279419    0.819810273124589    0.291323047528857  0.0000
  O1     O1        0.757058951254538    0.373401791641845    0.659639191315945  0.0000
  O3     O3        0.780137659881526    0.829523941199793    0.688822310982537  0.0000
  O1     O1        0.179376635306679    0.209633982377596    0.139063596603695  0.0000
  O1     O1        0.376175758447655    0.804433109107079    0.145238363805434  0.0000
  O3     O3        0.859008431124689    0.268822841718985    0.854252380790688  0.0000
  O1     O1        0.698764477378865    0.866129361114649    0.918456776749881  0.0000
  O3     O3        0.838863579002794    0.680085245746794    0.888693249543443  0.0000
  O1     O1        0.653765777294831    0.297860561473343    0.863082327957069  0.0000
  O1     O1        0.124292423989304    0.755128183297401    0.119611059049386  0.0000
  O3     O3        0.339532159834385    0.407080517634623    0.150507274972699  0.0000
  O1     O1        0.654667078511346    0.554112543856974    0.040711453502963  0.0000
  O3     O3        0.899396158589185    0.435253915235432    0.057654102067878  0.0000
  O3     O3        0.389286355225499    0.557643628509511    0.947793462695501  0.0000
  O1     O1        0.147776148114229    0.481835446370524    0.953540706933498  0.0000
  O3     O3        0.766106984565034    0.303159596772940    0.051512797551301  0.0000
  O1     O1        0.791938430816557    0.704503659568172    0.124100245819929  0.0000
  O3     O3        0.289098051996874    0.298081828164675    0.942256274688087  0.0000
  O1     O1        0.254859008262488    0.738506396276496    0.979455206414046  0.0000
