data_c00513.vasp
_audit_creation_method             Generated by GULP
_audit_author_name                 Salvador R. G. Balestra
_symmetry_space_group_name_H-M     'P 1             '
_symmetry_Int_Tables_number        1

loop_
_symmetry_equiv_pos_site_id
_symmetry_equiv_pos_as_xyz
_cell_length_a                       17.6535
_cell_length_b                        7.9119
_cell_length_c                       10.2750
_cell_angle_alpha                   92.1031
_cell_angle_beta                    90.6345
_cell_angle_gamma                   89.5724

loop_
_atom_site_label
_atom_site_type_symbol
_atom_site_fract_x
_atom_site_fract_y
_atom_site_fract_z
_atom_site_charge
  Ge     Ge        0.052090000000021    0.000000000000000    0.372269999999958  0.0000
  Ge     Ge        0.435447600794857    0.987159492283288    0.400574281157637  0.0000
  Ge     Ge        0.945171522280857    0.943201196278329    0.625574986377572  0.0000
  Ge     Ge        0.543665448191516    0.978672919320242    0.649636652523516  0.0000
  Ge     Ge        0.547771069088298    0.997983849725184    0.157056205640450  0.0000
  Ge     Ge        0.942649606191549    0.955453271833500    0.118168461360237  0.0000
  Ge     Ge        0.439367506544388    0.945339568863436    0.904909922403559  0.0000
  Ge     Ge        0.148999599029174    0.314684716810142    0.309887261254966  0.0000
  Ge     Ge        0.823581811213169    0.232325342749487    0.728859334638439  0.0000
  Ge     Ge        0.665956673700429    0.698773856092902    0.724968006479819  0.0000
  Ge     Ge        0.847348567224543    0.633053042402778    0.732090531543975  0.0000
  Ge     Ge        0.642412160248620    0.296598114571192    0.721992378530694  0.0000
  Ge     Ge        0.335282754201902    0.298167653266782    0.303355504574385  0.0000
  Ge     Ge        0.639781692269776    0.307290451189714    0.038911589029413  0.0000
  Ge     Ge        0.846462890875645    0.635298865265217    0.048498034848376  0.0000
  Ge     Ge        0.325353248881582    0.246724300175863    0.987590497115115  0.0000
  Ge     Ge        0.149423720568310    0.674255325363610    0.979262177700046  0.0000
  Ge     Ge        0.331515724655352    0.648716018771716    0.964061350869612  0.0000
  Ge     Ge        0.666032863773521    0.709849948654990    0.040537144179765  0.0000
  Ge     Ge        0.820745314766963    0.236674606402088    0.044880322256675  0.0000
  Si     Si        0.046250144275348    0.974769089009477    0.874587968537476  0.0000
  Si     Si        0.335081303262118    0.683491697492136    0.268574224620523  0.0000
  Si     Si        0.154194866294584    0.698581685809898    0.280998309847664  0.0000
  Si     Si        0.145563401503692    0.274568492010508    0.000470423810732  0.0000
  O1     O1        0.093884434275587    0.192428105532648    0.404385771343624  0.0000
  O3     O3        0.367300361091499    0.842392611205011    0.349257603786060  0.0000
  O1     O1        0.872101688637461    0.085531352487259    0.635585082325422  0.0000
  O1     O1        0.614797630610469    0.830819881365155    0.628734775236764  0.0000
  O1     O1        0.913281147139075    0.743369859315091    0.648997329773987  0.0000
  O1     O1        0.580423206664828    0.176272822879333    0.628835975528932  0.0000
  O3     O3        0.126055435281335    0.851676661922628    0.372294882043911  0.0000
  O1     O1        0.391757723809617    0.181162846559173    0.401800253094957  0.0000
  O1     O1        0.979853372951119    0.949801657087980    0.469538618612944  0.0000
  O1     O1        0.464696847527912    0.942601959359395    0.555850947540070  0.0000
  O1     O1        0.016758319011279    0.005859411966543    0.216057907057981  0.0000
  O1     O1        0.517971416404187    0.985696998509231    0.315349313531588  0.0000
  O3     O3        0.021707763850116    0.996535868357771    0.725593588291428  0.0000
  O1     O1        0.515901961637286    0.970292481685630    0.810299555545284  0.0000
  O1     O1        0.574762524009063    0.201162591378007    0.126327247687570  0.0000
  O1     O1        0.908486178324081    0.755772405051235    0.140511031021425  0.0000
  O1     O1        0.372584963491328    0.104644516449818    0.891147797060372  0.0000
  O3     O3        0.094436682996048    0.802036969615217    0.884226442427384  0.0000
  O1     O1        0.391699376188143    0.759444564633785    0.871141086524731  0.0000
  O2     O2        0.092771464634442    0.141381528708349    0.921107045769607  0.0000
  O1     O1        0.622595470873808    0.861064820588489    0.136361912306866  0.0000
  O1     O1        0.868878227087896    0.097585167378555    0.138049841251606  0.0000
  O1     O1        0.470737254774719    0.943762599151237    0.063563391683878  0.0000
  O3     O3        0.969883562063067    0.961760889387314    0.955879080206395  0.0000
  O3     O3        0.134955228236319    0.526408411234766    0.351260870758968  0.0000
  O3     O3        0.353230535210478    0.510681105516745    0.339875198778315  0.0000
  O1     O1        0.836593014416881    0.430741757283016    0.668890851798106  0.0000
  O1     O1        0.653109238238916    0.494226968896827    0.664398198239258  0.0000
  O1     O1        0.241652462158949    0.255654882686773    0.328297017350486  0.0000
  O2     O2        0.243794064787658    0.695098432087121    0.249443929549668  0.0000
  O1     O1        0.728178895767251    0.191369986686660    0.724992003596838  0.0000
  O1     O1        0.761402065426988    0.738894913455870    0.725589212571234  0.0000
  O3     O3        0.119346241208142    0.291101583034747    0.148850278952498  0.0000
  O3     O3        0.366533866454189    0.671675292152917    0.123549811579617  0.0000
  O1     O1        0.853710213995961    0.225569511276737    0.887832669191271  0.0000
  O1     O1        0.633220047989926    0.717026822567437    0.882417129690029  0.0000
  O1     O1        0.876888308711692    0.614400082909530    0.890158573450652  0.0000
  O1     O1        0.610087645033708    0.315445453221494    0.879524853665093  0.0000
  O3     O3        0.116736160295047    0.707742840427907    0.137173236946177  0.0000
  O1     O1        0.360129552737492    0.249008132456405    0.144860913661352  0.0000
  O1     O1        0.649862265483478    0.511234458673359    0.098378681162192  0.0000
  O1     O1        0.834824175326918    0.439816871257023    0.108909870083604  0.0000
  O1     O1        0.333948467148289    0.439985482274735    0.919009051661329  0.0000
  O3     O3        0.141427014433273    0.458946648796336    0.938809395485665  0.0000
  O1     O1        0.725138074920021    0.200337869595784    0.043809081927106  0.0000
  O1     O1        0.761476555423856    0.743724113755425    0.041325599768073  0.0000
  O3     O3        0.230186804263206    0.200355960875656    0.998249593696919  0.0000
  O1     O1        0.241198040653884    0.728856032239686    0.953768483488151  0.0000
