data_c00558.vasp
_audit_creation_method             Generated by GULP
_audit_author_name                 Salvador R. G. Balestra
_symmetry_space_group_name_H-M     'P 1             '
_symmetry_Int_Tables_number        1

loop_
_symmetry_equiv_pos_site_id
_symmetry_equiv_pos_as_xyz
_cell_length_a                       17.5098
_cell_length_b                        7.8569
_cell_length_c                       10.3055
_cell_angle_alpha                   90.7472
_cell_angle_beta                    90.5819
_cell_angle_gamma                   92.1670

loop_
_atom_site_label
_atom_site_type_symbol
_atom_site_fract_x
_atom_site_fract_y
_atom_site_fract_z
_atom_site_charge
  Ge     Ge        0.052090000000021    0.000000000000000    0.372269999999958  0.0000
  Ge     Ge        0.449722282669437    0.066199038196938    0.342951255685541  0.0000
  Ge     Ge        0.949298116130120    0.051196323754847    0.627708611514854  0.0000
  Ge     Ge        0.552059692293378    0.001404721368494    0.598225284032512  0.0000
  Ge     Ge        0.547005691356375    0.001387289387429    0.081142242194387  0.0000
  Ge     Ge        0.945459709468945    0.055847374019241    0.120968553140237  0.0000
  Ge     Ge        0.173296201719513    0.290348782503908    0.259500448974326  0.0000
  Ge     Ge        0.327543175232433    0.777056633280178    0.259636379870517  0.0000
  Ge     Ge        0.850927654116036    0.365422459201132    0.697412453401767  0.0000
  Ge     Ge        0.642053219098977    0.683833736282611    0.704432664519528  0.0000
  Ge     Ge        0.824684531669663    0.762948074977445    0.698028471590378  0.0000
  Ge     Ge        0.146065407545186    0.689835534959621    0.257207243463974  0.0000
  Ge     Ge        0.354603708835714    0.375609447967123    0.262114616405181  0.0000
  Ge     Ge        0.673468340355331    0.293859134068843    0.017513412985722  0.0000
  Ge     Ge        0.352480535572266    0.361071646575707    0.947614156560906  0.0000
  Ge     Ge        0.144601552098763    0.684762421030553    0.942130148044688  0.0000
  Ge     Ge        0.328773128395302    0.763944727588421    0.944649114210009  0.0000
  Ge     Ge        0.167445036708041    0.286091677892341    0.945448376796988  0.0000
  Ge     Ge        0.647707389896640    0.690378214313256    0.018761840768006  0.0000
  Ge     Ge        0.855847864189026    0.372462659746258    0.011220782555110  0.0000
  Si     Si        0.442956131957350    0.052614582593865    0.832457603998456  0.0000
  Si     Si        0.049122228502947    0.992289327483942    0.879087014121017  0.0000
  Si     Si        0.670654664482356    0.292778173827454    0.708835299822669  0.0000
  Si     Si        0.827563588307899    0.765729772240471    0.007243774888248  0.0000
  O1     O1        0.127580333820915    0.141432663219086    0.352373039022276  0.0000
  O1     O1        0.375221815604137    0.919206169425072    0.360590017374288  0.0000
  O1     O1        0.912204718498705    0.248108126858102    0.607687942678939  0.0000
  O1     O1        0.577245249378529    0.794814067961800    0.616167189859020  0.0000
  O1     O1        0.874050467210437    0.906421021051346    0.606208644146072  0.0000
  O3     O3        0.628371278812816    0.140836356903820    0.629260085119649  0.0000
  O1     O1        0.079530819526744    0.796215126783110    0.343261964198956  0.0000
  O1     O1        0.417412108434843    0.268746503250746    0.357318860664171  0.0000
  O1     O1        0.024943918791609    0.015782935015266    0.532077005801074  0.0000
  O1     O1        0.526474116875979    0.029160310673669    0.438412045790795  0.0000
  O1     O1        0.973512967884505    0.045065700435514    0.280059702968154  0.0000
  O1     O1        0.474438597917163    0.041364013408115    0.181247500347136  0.0000
  O3     O3        0.977561095252738    0.028028466033362    0.789168787921325  0.0000
  O3     O3        0.470825415495856    0.046908633474965    0.684565721217639  0.0000
  O1     O1        0.622158589928178    0.147322465729046    0.102252937082980  0.0000
  O3     O3        0.869312836321280    0.914008290537986    0.091723099953450  0.0000
  O3     O3        0.417161263681131    0.242948057797074    0.863547830397999  0.0000
  O3     O3        0.081229741986027    0.805023201902367    0.855299928015842  0.0000
  O3     O3        0.372500495723943    0.918519556050484    0.851082606108645  0.0000
  O3     O3        0.117581817428497    0.131814521318594    0.855423483934045  0.0000
  O1     O1        0.585894761723391    0.806534804085669    0.107217199472237  0.0000
  O1     O1        0.920723497264197    0.262968170171110    0.098851923177991  0.0000
  O3     O3        0.514738520106037    0.004192674923814    0.921219450074040  0.0000
  O3     O3        0.023592924547423    0.004729428270729    0.029185334335408  0.0000
  O1     O1        0.160052571250515    0.492840031207018    0.320467297530182  0.0000
  O1     O1        0.341724297691428    0.575843701657259    0.319823260286106  0.0000
  O1     O1        0.843461816734099    0.563421742150184    0.636545492949057  0.0000
  O3     O3        0.652306779520315    0.476180112441089    0.648737473795707  0.0000
  O1     O1        0.269323986787908    0.257739616759851    0.256915132296007  0.0000
  O1     O1        0.231232412453084    0.808097629209668    0.256916662207776  0.0000
  O3     O3        0.760926727383195    0.264892173191738    0.705804868392540  0.0000
  O1     O1        0.728865079263879    0.791760595939516    0.690670836469745  0.0000
  O1     O1        0.137533400258670    0.278798010125677    0.103567361334275  0.0000
  O1     O1        0.360936157469614    0.784008894398322    0.102370121629287  0.0000
  O1     O1        0.885621658513451    0.373916360448316    0.854002069891859  0.0000
  O1     O1        0.613141508986161    0.680514751694218    0.861695297067899  0.0000
  O3     O3        0.855378901567721    0.770378033147833    0.859070510664118  0.0000
  O3     O3        0.642711778806822    0.292026224363076    0.856750309577854  0.0000
  O1     O1        0.115312133446407    0.662484471012702    0.099426115312214  0.0000
  O1     O1        0.385392611275085    0.386507718801090    0.104027514646221  0.0000
  O1     O1        0.655440280168474    0.492810908308404    0.080860861201963  0.0000
  O3     O3        0.845767486075998    0.580690949616945    0.064810826770543  0.0000
  O1     O1        0.345578096072013    0.562315879244958    0.885862824993561  0.0000
  O1     O1        0.151049354656545    0.483007731455042    0.879712830092058  0.0000
  O1     O1        0.769173750299353    0.263896048559010    0.025169470239573  0.0000
  O3     O3        0.737253840954537    0.792543059757794    0.009966659113654  0.0000
  O1     O1        0.264131897432517    0.257855181549564    0.943611053365440  0.0000
  O1     O1        0.232241930906891    0.790854979162208    0.942354990135676  0.0000
