data_c00579.vasp
_audit_creation_method             Generated by GULP
_audit_author_name                 Salvador R. G. Balestra
_symmetry_space_group_name_H-M     'P 1             '
_symmetry_Int_Tables_number        1

loop_
_symmetry_equiv_pos_site_id
_symmetry_equiv_pos_as_xyz
_cell_length_a                       17.7614
_cell_length_b                        7.8985
_cell_length_c                       10.3717
_cell_angle_alpha                   88.9113
_cell_angle_beta                    91.2010
_cell_angle_gamma                   89.6119

loop_
_atom_site_label
_atom_site_type_symbol
_atom_site_fract_x
_atom_site_fract_y
_atom_site_fract_z
_atom_site_charge
  Ge     Ge        0.052090000000021    0.000000000000000    0.372269999999958  0.0000
  Ge     Ge        0.449448142372626    0.982498909449819    0.363874100480282  0.0000
  Ge     Ge        0.947748533471236    0.012062268214132    0.625539849176105  0.0000
  Ge     Ge        0.550832181251125    0.985843717611445    0.626837980546203  0.0000
  Ge     Ge        0.559421817896661    0.965477229493368    0.118546871028675  0.0000
  Ge     Ge        0.447255680722384    0.968779105388814    0.870499138411458  0.0000
  Ge     Ge        0.155022607146806    0.309505420582550    0.300507289296197  0.0000
  Ge     Ge        0.350200062031572    0.666860625536950    0.289840556604161  0.0000
  Ge     Ge        0.850322513605578    0.320980225867956    0.730470009375518  0.0000
  Ge     Ge        0.651160105484486    0.670936898986165    0.746724038514637  0.0000
  Ge     Ge        0.829973227031331    0.725036191544946    0.737113390286518  0.0000
  Ge     Ge        0.671391271849262    0.266872947413681    0.737405469633300  0.0000
  Ge     Ge        0.168400404979777    0.710878813729404    0.293707207855871  0.0000
  Ge     Ge        0.677429297838310    0.253976551067971    0.049720503047835  0.0000
  Ge     Ge        0.843703556896064    0.693389745339247    0.050983920669804  0.0000
  Ge     Ge        0.329105090963473    0.255872742449020    0.991717614543413  0.0000
  Ge     Ge        0.167088205020973    0.708378283261331    0.982008353670492  0.0000
  Ge     Ge        0.350610458402794    0.658619948519128    0.979227477483521  0.0000
  Ge     Ge        0.147734047556795    0.305051747170463    0.985239661363845  0.0000
  Ge     Ge        0.661939004987429    0.651806697623046    0.064906771913851  0.0000
  Si     Si        0.954939671813458    0.985026390637441    0.110229490131074  0.0000
  Si     Si        0.056510419034654    0.997631408652820    0.871018728651368  0.0000
  Si     Si        0.332375355980094    0.271047260259027    0.298603706894897  0.0000
  Si     Si        0.856312697409076    0.298776507660011    0.036044818512842  0.0000
  O1     O1        0.097149875841451    0.189034995674803    0.393439822452627  0.0000
  O1     O1        0.408176055855817    0.787881063333524    0.383812419729985  0.0000
  O1     O1        0.914285771998669    0.214028467199482    0.641528343508777  0.0000
  O1     O1        0.582272260894048    0.785007277040630    0.667308574020402  0.0000
  O1     O1        0.876435707402081    0.871250527244632    0.646936415446687  0.0000
  O1     O1        0.620531198133408    0.131792284634125    0.644202645401152  0.0000
  O1     O1        0.119062525382701    0.843102303708065    0.389410066210817  0.0000
  O3     O3        0.382712969007166    0.141194341270107    0.384216915412501  0.0000
  O1     O1        0.978201474026013    0.980801930052943    0.471627873087432  0.0000
  O1     O1        0.524537458644437    0.998825344837801    0.466567002187426  0.0000
  O3     O3        0.022080803446356    0.987891486159091    0.212206758792192  0.0000
  O1     O1        0.483112216743757    0.002285368687025    0.209602592826219  0.0000
  O3     O3        0.025057737219158    0.979046845015796    0.726759353931929  0.0000
  O1     O1        0.471991702150155    0.020926510125202    0.715845309504556  0.0000
  O1     O1        0.632320335394844    0.106888651905124    0.140245601785354  0.0000
  O3     O3        0.899043005852473    0.830018004956665    0.139899008951529  0.0000
  O1     O1        0.376764599470845    0.103375485162115    0.914777640514789  0.0000
  O3     O3        0.123714085507105    0.863284096565264    0.887656174613616  0.0000
  O1     O1        0.411262305284134    0.767620671270144    0.883254181020195  0.0000
  O3     O3        0.085184604818692    0.186801829843919    0.895515917562458  0.0000
  O1     O1        0.599823781165395    0.769868301755525    0.149807125502308  0.0000
  O2     O2        0.910385122123949    0.164942072232418    0.113533351440475  0.0000
  O1     O1        0.528934451834629    0.985414333353888    0.960291824308751  0.0000
  O2     O2        0.988392934674254    0.955205061616359    0.968176467206363  0.0000
  O1     O1        0.158770499998723    0.509497929909112    0.357382967425665  0.0000
  O3     O3        0.342905467538082    0.461418038004063    0.349512653325514  0.0000
  O1     O1        0.840519490190890    0.524928841779872    0.675167684066038  0.0000
  O1     O1        0.659008855641147    0.473006248311417    0.683417263716805  0.0000
  O3     O3        0.245087607560586    0.220767259042956    0.302170375763066  0.0000
  O1     O1        0.262264168751708    0.758757507894601    0.288188547035166  0.0000
  O1     O1        0.765444265350119    0.218812730971339    0.726478206956710  0.0000
  O1     O1        0.735927631801220    0.774851951154269    0.736598169014863  0.0000
  O1     O1        0.121986323044718    0.312186219977532    0.143370848629453  0.0000
  O1     O1        0.384562389412511    0.668690298961919    0.136210376835154  0.0000
  O3     O3        0.882627095820883    0.322414658665050    0.889967985538259  0.0000
  O1     O1        0.630641084659287    0.649237355473740    0.906834402092966  0.0000
  O1     O1        0.865067302328941    0.718815743280444    0.892256958239775  0.0000
  O1     O1        0.642222962406596    0.251167234934043    0.894019948852387  0.0000
  O1     O1        0.135143548372849    0.715889396690954    0.136471581609244  0.0000
  O3     O3        0.359093114032469    0.266995162921259    0.151280892424672  0.0000
  O1     O1        0.664502366862615    0.446920495669429    0.120106395820737  0.0000
  O3     O3        0.857687252691970    0.482371697701901    0.100697811954481  0.0000
  O1     O1        0.345416000800680    0.454256177839433    0.927369083762657  0.0000
  O1     O1        0.150556041706700    0.508415460181516    0.924261715861548  0.0000
  O3     O3        0.773232971109864    0.220097838294672    0.036398902733050  0.0000
  O1     O1        0.750514231168805    0.739410519565559    0.071849073398923  0.0000
  O1     O1        0.235230161316659    0.212086346986294    0.980880177293121  0.0000
  O1     O1        0.261760655594564    0.745874900794020    0.979186763222921  0.0000
