data_c00565.vasp
_audit_creation_method             Generated by GULP
_audit_author_name                 Salvador R. G. Balestra
_symmetry_space_group_name_H-M     'P 1             '
_symmetry_Int_Tables_number        1

loop_
_symmetry_equiv_pos_site_id
_symmetry_equiv_pos_as_xyz
_cell_length_a                       17.7389
_cell_length_b                        7.8750
_cell_length_c                       10.4050
_cell_angle_alpha                   89.9463
_cell_angle_beta                    90.5948
_cell_angle_gamma                   90.0221

loop_
_atom_site_label
_atom_site_type_symbol
_atom_site_fract_x
_atom_site_fract_y
_atom_site_fract_z
_atom_site_charge
  Ge     Ge        0.052090000000021    0.000000000000000    0.372269999999958  0.0000
  Ge     Ge        0.448516098889333    0.968688544188243    0.371806180441181  0.0000
  Ge     Ge        0.946163365397344    0.999662130961163    0.624028384065769  0.0000
  Ge     Ge        0.551024648233303    0.978164838600296    0.634384875517304  0.0000
  Ge     Ge        0.549171327440943    0.964936116805886    0.117571137349008  0.0000
  Ge     Ge        0.945235555195480    0.998074926259728    0.118724878687722  0.0000
  Ge     Ge        0.148878161483700    0.310138135208186    0.260297463347952  0.0000
  Ge     Ge        0.350292552077312    0.658156153018986    0.257113919081054  0.0000
  Ge     Ge        0.843261937952860    0.314338376468240    0.687936434464152  0.0000
  Ge     Ge        0.826256541440485    0.713217534864548    0.695348343738289  0.0000
  Ge     Ge        0.170644600377027    0.715217928936577    0.257323339111601  0.0000
  Ge     Ge        0.328643215669629    0.253648514430828    0.257434537461775  0.0000
  Ge     Ge        0.669201495474278    0.247750143701329    0.000101324575504  0.0000
  Ge     Ge        0.825166135158445    0.714999578205172    0.006905325914251  0.0000
  Ge     Ge        0.330006217679850    0.260083624193709    0.945380536958009  0.0000
  Ge     Ge        0.163062126444877    0.705321812565911    0.945106400193863  0.0000
  Ge     Ge        0.345883867148509    0.663864276760345    0.944198004502502  0.0000
  Ge     Ge        0.147013103741459    0.300479982201128    0.948096846898198  0.0000
  Ge     Ge        0.645232769693280    0.655600834484118    0.006634389918714  0.0000
  Ge     Ge        0.848360147556207    0.309645039316638    0.004074235045870  0.0000
  Si     Si        0.442849901548685    0.975409937281204    0.875444812391573  0.0000
  Si     Si        0.048667386708656    0.988681679755584    0.875294214003539  0.0000
  Si     Si        0.647628358928785    0.662601027335541    0.703433089343538  0.0000
  Si     Si        0.665300354276886    0.268985393770529    0.694880496468287  0.0000
  O1     O1        0.085707847699083    0.202236546390575    0.352508524310574  0.0000
  O1     O1        0.415800389847927    0.766512600676140    0.345803930116423  0.0000
  O1     O1        0.904720494122478    0.194283006871808    0.601456336213323  0.0000
  O3     O3        0.594443491513094    0.781458617209850    0.616456004896815  0.0000
  O1     O1        0.873696799888636    0.856160526356994    0.604074431512141  0.0000
  O3     O3        0.615034363654426    0.142594768506378    0.609337323502178  0.0000
  O1     O1        0.123515631549853    0.857762532155834    0.349440761294676  0.0000
  O1     O1        0.376644304084019    0.111160576719823    0.349813568890057  0.0000
  O1     O1        0.021079328441257    0.971818202417746    0.527035972440251  0.0000
  O1     O1        0.478493703072564    0.991517199065774    0.528224409246542  0.0000
  O1     O1        0.975557995436912    0.969079402675470    0.273649301271607  0.0000
  O1     O1        0.523498732984081    0.003580550829333    0.272690867377761  0.0000
  O3     O3        0.977475305936763    0.973517325348428    0.781891149049990  0.0000
  O3     O3        0.515091164073922    0.997994728912981    0.787686866350594  0.0000
  O1     O1        0.621724621503343    0.101618407476679    0.086807229402748  0.0000
  O1     O1        0.872182677107781    0.858882830570902    0.099223091900318  0.0000
  O3     O3        0.379769338012212    0.119514492617488    0.851316524756985  0.0000
  O3     O3        0.111704010699585    0.845072955020358    0.850819318909804  0.0000
  O3     O3        0.404956501193168    0.791600032252278    0.854552098890007  0.0000
  O3     O3        0.086392665139685    0.173609156542021    0.859261576497889  0.0000
  O1     O1        0.580284879564428    0.760175313554728    0.096543008095813  0.0000
  O1     O1        0.914820361210002    0.201884825066603    0.091449318594583  0.0000
  O3     O3        0.469796548104150    0.997967838897514    0.023261672108765  0.0000
  O3     O3        0.021331304241235    0.958027411728679    0.020829794524809  0.0000
  O1     O1        0.159667165399721    0.512035330765758    0.316959554257492  0.0000
  O1     O1        0.340028851771800    0.457137585557932    0.316094387270952  0.0000
  O1     O1        0.842275421873389    0.516403875940664    0.630155417902654  0.0000
  O2     O2        0.653552519852343    0.467483092067878    0.653303957328780  0.0000
  O1     O1        0.234300273898824    0.206642582844248    0.258922158012450  0.0000
  O1     O1        0.264846904812563    0.762476930652433    0.258066889580371  0.0000
  O3     O3        0.753193990649354    0.226199170588776    0.681881631201672  0.0000
  O3     O3        0.730086559197478    0.746963002090071    0.702443311805410  0.0000
  O1     O1        0.116170408581092    0.310541507200726    0.103668166996006  0.0000
  O1     O1        0.378861252357314    0.652347026522305    0.099492140746660  0.0000
  O1     O1        0.873504905169451    0.317012032605664    0.845110080533489  0.0000
  O3     O3        0.615547295968306    0.661338720885511    0.846813927751375  0.0000
  O1     O1        0.857282677496071    0.723704350294319    0.851953370619444  0.0000
  O3     O3        0.639833733628364    0.243390619949765    0.841080302147275  0.0000
  O1     O1        0.135810222137098    0.713243863318038    0.102867749223331  0.0000
  O1     O1        0.360713384590261    0.254663140758501    0.102276488239192  0.0000
  O1     O1        0.653057685442203    0.449876493240929    0.057011385006769  0.0000
  O1     O1        0.839483632852277    0.511103816009568    0.062775819396613  0.0000
  O1     O1        0.341540304729045    0.461812486543280    0.884032510789023  0.0000
  O1     O1        0.149761222178973    0.502420962588601    0.887024139456191  0.0000
  O1     O1        0.763391335119856    0.204679158760370    0.010771246426934  0.0000
  O1     O1        0.730623312466809    0.757060961563378    0.014869983356487  0.0000
  O1     O1        0.235628606203974    0.212480539426621    0.944778177495048  0.0000
  O1     O1        0.257325395012666    0.752657569123954    0.941590526616072  0.0000
