data_c00521.vasp
_audit_creation_method             Generated by GULP
_audit_author_name                 Salvador R. G. Balestra
_symmetry_space_group_name_H-M     'P 1             '
_symmetry_Int_Tables_number        1

loop_
_symmetry_equiv_pos_site_id
_symmetry_equiv_pos_as_xyz
_cell_length_a                       17.6181
_cell_length_b                        7.8745
_cell_length_c                       10.1944
_cell_angle_alpha                   91.5266
_cell_angle_beta                    91.2544
_cell_angle_gamma                   91.6593

loop_
_atom_site_label
_atom_site_type_symbol
_atom_site_fract_x
_atom_site_fract_y
_atom_site_fract_z
_atom_site_charge
  Ge     Ge        0.052090000000021    0.000000000000000    0.372269999999958  0.0000
  Ge     Ge        0.439401024192181    0.042402899718390    0.318770640732904  0.0000
  Ge     Ge        0.940322136954045    0.018104163642475    0.616170991599687  0.0000
  Ge     Ge        0.543927240810839    0.973040160878609    0.571894724248551  0.0000
  Ge     Ge        0.541491113122055    0.981284978487753    0.065777008741467  0.0000
  Ge     Ge        0.938781390055837    0.040111394433433    0.122253530441273  0.0000
  Ge     Ge        0.433239843256251    0.028812727654744    0.812457457970094  0.0000
  Ge     Ge        0.161931712808574    0.298564904575652    0.262184756229470  0.0000
  Ge     Ge        0.840608378037021    0.333230152511773    0.684050987572991  0.0000
  Ge     Ge        0.635542497954673    0.657612102901880    0.685059313980807  0.0000
  Ge     Ge        0.818235797693692    0.731481699911690    0.682853101076736  0.0000
  Ge     Ge        0.345825729925968    0.360074862205559    0.253947088317792  0.0000
  Ge     Ge        0.666180714519693    0.267239739770674    0.001776541987632  0.0000
  Ge     Ge        0.818509865286507    0.748413472400105    0.001440033556237  0.0000
  Ge     Ge        0.337196054881845    0.335963903983015    0.936963743592526  0.0000
  Ge     Ge        0.134925742945655    0.670738908441495    0.938523877957373  0.0000
  Ge     Ge        0.314899490205174    0.741331822818770    0.934305110923085  0.0000
  Ge     Ge        0.154200745622750    0.266586152113976    0.946051682973874  0.0000
  Ge     Ge        0.637381684636007    0.666076759471419    0.001820559720161  0.0000
  Ge     Ge        0.846338801919074    0.347094139109030    0.003925239283021  0.0000
  Si     Si        0.037392614028165    0.973000567939167    0.874048329894320  0.0000
  Si     Si        0.322537135706246    0.750553730710105    0.245111523529156  0.0000
  Si     Si        0.661956487897419    0.264392409491560    0.689612608697237  0.0000
  Si     Si        0.145429705469947    0.688853333780126    0.249552595695239  0.0000
  O1     O1        0.116604674271502    0.165357097254457    0.366414311501679  0.0000
  O3     O3        0.363444329518442    0.896885262175684    0.333456862419200  0.0000
  O1     O1        0.901286049910980    0.212867672817304    0.594743787518112  0.0000
  O1     O1        0.572368058529343    0.768991394812526    0.592673381659447  0.0000
  O1     O1        0.868333344107980    0.869147213445997    0.588286091483785  0.0000
  O3     O3        0.617979183687796    0.116661567142477    0.606050516049356  0.0000
  O3     O3        0.093844249095628    0.810313356461925    0.333541766926478  0.0000
  O1     O1        0.406171504544816    0.242576158954309    0.347356980912720  0.0000
  O1     O1        0.020119314699131    0.986037051853467    0.530054788218791  0.0000
  O1     O1        0.517474694054939    0.994807390546275    0.409013041676137  0.0000
  O1     O1        0.971104268926894    0.031944333908652    0.281526289171921  0.0000
  O1     O1        0.465696048009324    0.030489816474845    0.156644448200559  0.0000
  O3     O3        0.965665953885006    0.005153006666670    0.782458170695001  0.0000
  O1     O1        0.462065927826639    0.016729084418665    0.652480808801822  0.0000
  O1     O1        0.616307513881819    0.125820130980861    0.090863908038185  0.0000
  O1     O1        0.862349099106076    0.902667377842023    0.098989327741668  0.0000
  O1     O1        0.398818197098406    0.227755137265875    0.841379057647501  0.0000
  O3     O3        0.069257660527751    0.784516616726530    0.851382436859085  0.0000
  O1     O1        0.361947018946984    0.880965971885066    0.839209757977287  0.0000
  O3     O3        0.103719405936883    0.114904861883042    0.852587946606152  0.0000
  O1     O1        0.574912592174063    0.781658562625684    0.091789447650439  0.0000
  O1     O1        0.913281018271940    0.244646033896501    0.093139433319582  0.0000
  O1     O1        0.513194892506327    0.989903245034988    0.903061686763122  0.0000
  O3     O3        0.013643776804342    0.983393431264299    0.025773629260541  0.0000
  O3     O3        0.148841859802013    0.506927906963436    0.315468061566489  0.0000
  O3     O3        0.343315272479505    0.570287254366977    0.305975408478018  0.0000
  O1     O1        0.833218482352854    0.529484324861447    0.620746792513768  0.0000
  O3     O3        0.645627762911483    0.448444361511092    0.629965869157735  0.0000
  O1     O1        0.257100634155630    0.265203940086686    0.260855338730308  0.0000
  O2     O2        0.231179425905983    0.769303708393447    0.240013467828358  0.0000
  O3     O3        0.751547747780127    0.231936598063720    0.688487749454860  0.0000
  O1     O1        0.722355601998563    0.762084691354079    0.678727482164882  0.0000
  O1     O1        0.125325712730725    0.261039656731431    0.106318645729972  0.0000
  O3     O3        0.349995817242421    0.757680741413564    0.095348363760332  0.0000
  O1     O1        0.873512938765085    0.354568723204606    0.843590869077835  0.0000
  O1     O1        0.603512774483892    0.652588576920202    0.841705418598977  0.0000
  O1     O1        0.850220783607515    0.751956685040065    0.843503436237753  0.0000
  O3     O3        0.634292046967414    0.262994307512042    0.838941094010935  0.0000
  O3     O3        0.111799320606140    0.661199867633604    0.103136361277004  0.0000
  O1     O1        0.374197885050879    0.351235936487264    0.094207011093798  0.0000
  O1     O1        0.649847149631190    0.469853635971335    0.062905249343193  0.0000
  O1     O1        0.835089482655688    0.549995897153637    0.062852689967237  0.0000
  O1     O1        0.326235586766068    0.535823045180743    0.878532900294201  0.0000
  O1     O1        0.138194170061811    0.464987619993516    0.883070835725569  0.0000
  O1     O1        0.761202683508361    0.233202907702303    0.010352272435924  0.0000
  O1     O1        0.722667054628505    0.778259472131937    0.997958539894172  0.0000
  O1     O1        0.249638609005089    0.232339944154204    0.940859292304030  0.0000
  O1     O1        0.219980312339531    0.779290746254901    0.926878040194039  0.0000
