data_c00539.vasp
_audit_creation_method             Generated by GULP
_audit_author_name                 Salvador R. G. Balestra
_symmetry_space_group_name_H-M     'P 1             '
_symmetry_Int_Tables_number        1

loop_
_symmetry_equiv_pos_site_id
_symmetry_equiv_pos_as_xyz
_cell_length_a                       17.5218
_cell_length_b                        7.7649
_cell_length_c                       10.1557
_cell_angle_alpha                   93.5765
_cell_angle_beta                    88.7421
_cell_angle_gamma                   87.0809

loop_
_atom_site_label
_atom_site_type_symbol
_atom_site_fract_x
_atom_site_fract_y
_atom_site_fract_z
_atom_site_charge
  Ge     Ge        0.052090000000021    0.000000000000000    0.372269999999958  0.0000
  Ge     Ge        0.464798395900986    0.915738362462724    0.408772523926690  0.0000
  Ge     Ge        0.972439217839676    0.893441653715653    0.639378348867040  0.0000
  Ge     Ge        0.568443633984137    0.928643476161032    0.663635189432071  0.0000
  Ge     Ge        0.575124622419995    0.979537603676770    0.165002578580183  0.0000
  Ge     Ge        0.964843076217132    0.921405738199504    0.093450181018766  0.0000
  Ge     Ge        0.163512763210642    0.280196428536379    0.296948213912675  0.0000
  Ge     Ge        0.359980125197072    0.608186018888901    0.298623927321371  0.0000
  Ge     Ge        0.842141068756373    0.191117646807111    0.727396293469199  0.0000
  Ge     Ge        0.699982929079672    0.655091402220157    0.723944459024801  0.0000
  Ge     Ge        0.883497132501018    0.570916413394878    0.715275747221713  0.0000
  Ge     Ge        0.665686533492726    0.247276952450354    0.729682560473210  0.0000
  Ge     Ge        0.185013953592660    0.697147829422899    0.290349762803871  0.0000
  Ge     Ge        0.345412926817539    0.207503000479965    0.312664289700010  0.0000
  Ge     Ge        0.658778071630152    0.286515230115244    0.047420272677813  0.0000
  Ge     Ge        0.881567418248339    0.583275976208977    0.043662185168421  0.0000
  Ge     Ge        0.358781993601485    0.177086093945619    0.996886801924975  0.0000
  Ge     Ge        0.364825458824863    0.565853395282738    0.968045424503392  0.0000
  Ge     Ge        0.698668180646316    0.684902139122411    0.042499119775391  0.0000
  Ge     Ge        0.834209267098567    0.215057105447108    0.050025246188062  0.0000
  Si     Si        0.472850603013628    0.865862576507624    0.924957536466544  0.0000
  Si     Si        0.087401830031769    0.944031938200983    0.859149210877705  0.0000
  Si     Si        0.190333496971519    0.646433903974238    0.971475698843299  0.0000
  Si     Si        0.174659148207093    0.247577674558776    0.991475994924800  0.0000
  O1     O1        0.097830366251009    0.189620254694324    0.394131311258437  0.0000
  O1     O1        0.437200514222482    0.719595045107087    0.340097933345862  0.0000
  O1     O1        0.892697327970603    0.997619896502529    0.716871723754948  0.0000
  O1     O1        0.649415007404808    0.795867375644402    0.631828010783301  0.0000
  O1     O1        0.950702155995979    0.681389688857636    0.632427695655965  0.0000
  O1     O1        0.594721595547487    0.136120592948199    0.651686449444221  0.0000
  O1     O1        0.119374106647594    0.830607409933724    0.375046554786434  0.0000
  O1     O1        0.390891379162703    0.067438387309279    0.412981451648617  0.0000
  O1     O1        0.981310930757964    0.972599754603110    0.485445665460951  0.0000
  O1     O1        0.493029973473665    0.884453231508773    0.566924406181153  0.0000
  O1     O1        0.013503914076685    0.011244680462143    0.218826391833911  0.0000
  O1     O1        0.544504918722542    0.975845636381982    0.326081599656609  0.0000
  O3     O3        0.060340564039845    0.933676465709077    0.709610222331016  0.0000
  O3     O3        0.542178751697293    0.879472947297214    0.824232349643947  0.0000
  O1     O1        0.588115920713633    0.190061230839298    0.132793148396378  0.0000
  O1     O1        0.946411753093708    0.712126876909340    0.120955985498623  0.0000
  O3     O3        0.403233217185648    0.004538259715739    0.904992138823398  0.0000
  O2     O2        0.137837430189597    0.769705297274577    0.884534084300727  0.0000
  O3     O3        0.438461236678370    0.676807134948488    0.910116717138590  0.0000
  O2     O2        0.132098658917452    0.119122768119395    0.888612274102703  0.0000
  O1     O1        0.658984103115796    0.856914839856696    0.138193887410224  0.0000
  O1     O1        0.874333420635947    0.018522862042879    0.077834522014780  0.0000
  O3     O3        0.503221592042880    0.889427681557795    0.072536838693753  0.0000
  O3     O3        0.008961327896864    0.950347681692420    0.943251472033350  0.0000
  O1     O1        0.173483229141699    0.491768338614885    0.339577120296680  0.0000
  O1     O1        0.357868314372470    0.416231492342236    0.373377587523425  0.0000
  O1     O1        0.897673188990212    0.351695103312112    0.675605399821771  0.0000
  O1     O1        0.652664001169155    0.465377353804737    0.721667508980750  0.0000
  O1     O1        0.250161816474429    0.168851541763213    0.308850013555893  0.0000
  O1     O1        0.277522137311075    0.739122881589932    0.326072858648232  0.0000
  O1     O1        0.753902819597118    0.179375533596234    0.658366322324035  0.0000
  O1     O1        0.791763741855264    0.615108378522077    0.663526386634289  0.0000
  O3     O3        0.134023029299261    0.254654596713251    0.133516716017297  0.0000
  O1     O1        0.355764253635374    0.538086460092549    0.134185877870577  0.0000
  O1     O1        0.815334485077412    0.263109762167047    0.887825010783446  0.0000
  O1     O1        0.707961580054317    0.741683650201142    0.882744248488786  0.0000
  O1     O1        0.894584024504466    0.624163927655877    0.879996289387160  0.0000
  O1     O1        0.656732467458937    0.191125563895250    0.890404764858850  0.0000
  O3     O3        0.169141866982655    0.707780894617125    0.122196710909507  0.0000
  O1     O1        0.387486392246407    0.165179391213756    0.156916312719872  0.0000
  O1     O1        0.643244212727264    0.506439081596242    0.049374364501822  0.0000
  O1     O1        0.897095999814067    0.374771146388447    0.088082156512053  0.0000
  O1     O1        0.380172479678142    0.354197760664964    0.912492876918880  0.0000
  O2     O2        0.173049423510286    0.443191362280571    0.941594382803422  0.0000
  O1     O1        0.744758492604826    0.237410340383367    0.121238097584636  0.0000
  O1     O1        0.787715171032102    0.626745760441194    0.095722926896831  0.0000
  O3     O3        0.260333901547021    0.171925728789184    0.004334383871013  0.0000
  O3     O3        0.277676354693676    0.666748504463502    0.930227760590935  0.0000
