data_c00569.vasp
_audit_creation_method             Generated by GULP
_audit_author_name                 Salvador R. G. Balestra
_symmetry_space_group_name_H-M     'P 1             '
_symmetry_Int_Tables_number        1

loop_
_symmetry_equiv_pos_site_id
_symmetry_equiv_pos_as_xyz
_cell_length_a                       17.5774
_cell_length_b                        7.8047
_cell_length_c                       10.1195
_cell_angle_alpha                   91.1920
_cell_angle_beta                    89.3120
_cell_angle_gamma                   86.9552

loop_
_atom_site_label
_atom_site_type_symbol
_atom_site_fract_x
_atom_site_fract_y
_atom_site_fract_z
_atom_site_charge
  Ge     Ge        0.052090000000021    0.000000000000000    0.372269999999958  0.0000
  Ge     Ge        0.465786423903793    0.915157795597176    0.368442837297059  0.0000
  Ge     Ge        0.964892514401146    0.907551089410299    0.637413764176127  0.0000
  Ge     Ge        0.571971519484944    0.955926140176874    0.620045383219350  0.0000
  Ge     Ge        0.571313898689752    0.968708500854031    0.110541378381588  0.0000
  Ge     Ge        0.462094358345928    0.895781994875581    0.864609644892971  0.0000
  Ge     Ge        0.157858872956717    0.297876865678234    0.303294774428168  0.0000
  Ge     Ge        0.361425791535671    0.609105780531556    0.307994347538366  0.0000
  Ge     Ge        0.841114614098630    0.207423464596455    0.737755393420960  0.0000
  Ge     Ge        0.694954292879784    0.665771467022978    0.736389216586417  0.0000
  Ge     Ge        0.879119425843608    0.585492848839197    0.725216767926949  0.0000
  Ge     Ge        0.663600304467158    0.262989955799613    0.739684600383422  0.0000
  Ge     Ge        0.181184026553919    0.702454489006336    0.299021431470789  0.0000
  Ge     Ge        0.338581860803037    0.205935013926343    0.305427598561103  0.0000
  Ge     Ge        0.674142722171037    0.272980693353043    0.057689749539081  0.0000
  Ge     Ge        0.873209675476217    0.614750349978254    0.051921008452201  0.0000
  Ge     Ge        0.340550863115669    0.191092924635057    0.984168926355371  0.0000
  Ge     Ge        0.189150620015829    0.689356285309043    0.978090599882195  0.0000
  Ge     Ge        0.371459618027884    0.589036621839286    0.985552879555120  0.0000
  Ge     Ge        0.158376417033212    0.289373773993250    0.982316732957250  0.0000
  Si     Si        0.967241042198546    0.929784418697748    0.097566615913295  0.0000
  Si     Si        0.079857604532933    0.973830827194025    0.861140828087348  0.0000
  Si     Si        0.694328464538219    0.674133559073811    0.050076769243931  0.0000
  Si     Si        0.845768967098784    0.238048594031661    0.054685429361225  0.0000
  O1     O1        0.091220524170681    0.194913455278641    0.392063711945353  0.0000
  O1     O1        0.427553272966562    0.719543895120173    0.392266038977987  0.0000
  O1     O1        0.886650678359852    0.012311066661884    0.713040020645775  0.0000
  O1     O1        0.651406597825519    0.824284687678489    0.646728455965721  0.0000
  O1     O1        0.944063519049232    0.696843957530264    0.637480979514126  0.0000
  O1     O1        0.594043490063658    0.163049955077028    0.655672509533554  0.0000
  O1     O1        0.123193378628226    0.842804380805133    0.390865182610251  0.0000
  O1     O1        0.392652155293399    0.068394537583981    0.399053924554777  0.0000
  O1     O1        0.977738120609387    0.974203337584060    0.478312476687388  0.0000
  O1     O1        0.546022029074978    0.943696927282956    0.456662188813075  0.0000
  O3     O3        0.019877843415563    0.996896967151236    0.210369281070861  0.0000
  O1     O1        0.493501661934200    0.930302452901559    0.204839051864119  0.0000
  O3     O3        0.048937067776104    0.956525929610602    0.713932614817868  0.0000
  O1     O1        0.492063216686431    0.895865841759332    0.702587246635356  0.0000
  O1     O1        0.608751534670467    0.164082921829032    0.145791407395793  0.0000
  O3     O3        0.933294800742178    0.749367691110800    0.134197736863921  0.0000
  O1     O1        0.382780925447045    0.029987473836924    0.888624344727563  0.0000
  O3     O3        0.154204484328114    0.850070601701842    0.876657152316970  0.0000
  O1     O1        0.440504761719200    0.690146025025201    0.902524533300698  0.0000
  O3     O3        0.095070887902589    0.171302364273560    0.892379867964972  0.0000
  O3     O3        0.644196821434389    0.812697336521174    0.134996561212590  0.0000
  O2     O2        0.895027910358794    0.062101734870026    0.071631204232539  0.0000
  O1     O1        0.539056417461882    0.961008511357155    0.950617236950412  0.0000
  O2     O2        0.014630630603416    0.907222335441427    0.960116016064958  0.0000
  O1     O1        0.170524708694560    0.500641268455627    0.361246506087654  0.0000
  O1     O1        0.347137221691483    0.411323674035722    0.369216057462544  0.0000
  O1     O1        0.896440375002595    0.370472219292829    0.688409824931348  0.0000
  O1     O1        0.646123801343477    0.481182368493565    0.729819918282552  0.0000
  O1     O1        0.242409904978081    0.174204954481315    0.305349480638116  0.0000
  O1     O1        0.277008624231095    0.734453661054938    0.306141458824347  0.0000
  O1     O1        0.752650855977171    0.209025859506004    0.670440528642561  0.0000
  O1     O1        0.786054347452326    0.625949909764331    0.678522554818827  0.0000
  O1     O1        0.128217407526657    0.318878738267231    0.142260531738953  0.0000
  O1     O1        0.394223436584892    0.571884123066578    0.148588387293404  0.0000
  O3     O3        0.821998206721196    0.273561299683246    0.902203872861878  0.0000
  O3     O3        0.698958982788568    0.736040884133015    0.899525435508136  0.0000
  O1     O1        0.889968078693013    0.645182290627736    0.888357556669014  0.0000
  O1     O1        0.663548236988828    0.193962574055290    0.899819164164084  0.0000
  O1     O1        0.153649990922411    0.716722432032314    0.136359144427931  0.0000
  O1     O1        0.371512142336150    0.182464711940414    0.144251819167159  0.0000
  O3     O3        0.655073521128737    0.491958203329597    0.058156166420457  0.0000
  O3     O3        0.892235158370565    0.402008721884889    0.097881605884180  0.0000
  O1     O1        0.361490517277631    0.386940646318293    0.920960128728210  0.0000
  O1     O1        0.167535506995793    0.489074429928890    0.917732367247865  0.0000
  O3     O3        0.764109415837206    0.228721348496323    0.125418152680984  0.0000
  O3     O3        0.779868625627394    0.655211122453234    0.103461995305365  0.0000
  O1     O1        0.243947683539525    0.173909487512746    0.983166094322886  0.0000
  O1     O1        0.285462804060050    0.705462847298604    0.979199905552868  0.0000
