data_c00535.vasp
_audit_creation_method             Generated by GULP
_audit_author_name                 Salvador R. G. Balestra
_symmetry_space_group_name_H-M     'P 1             '
_symmetry_Int_Tables_number        1

loop_
_symmetry_equiv_pos_site_id
_symmetry_equiv_pos_as_xyz
_cell_length_a                       17.5676
_cell_length_b                        7.8231
_cell_length_c                       10.3193
_cell_angle_alpha                   90.1330
_cell_angle_beta                    90.2059
_cell_angle_gamma                   91.7569

loop_
_atom_site_label
_atom_site_type_symbol
_atom_site_fract_x
_atom_site_fract_y
_atom_site_fract_z
_atom_site_charge
  Ge     Ge        0.052090000000021    0.000000000000000    0.372269999999958  0.0000
  Ge     Ge        0.449377009239097    0.050532716781313    0.363102473459683  0.0000
  Ge     Ge        0.950480908170378    0.065775341873237    0.628402683414308  0.0000
  Ge     Ge        0.549683230327247    0.997340875357598    0.621309875749964  0.0000
  Ge     Ge        0.545728024212697    0.996124238996087    0.098696692963263  0.0000
  Ge     Ge        0.951395212944466    0.062766260728146    0.112804170812467  0.0000
  Ge     Ge        0.174851844930781    0.284494514806308    0.288835492962107  0.0000
  Ge     Ge        0.326676615458727    0.768636977602904    0.281801014978298  0.0000
  Ge     Ge        0.853562167428921    0.375172833137764    0.736227684350905  0.0000
  Ge     Ge        0.646034833900492    0.688058146680375    0.731897142580013  0.0000
  Ge     Ge        0.825007693037160    0.776640888788282    0.733259516941499  0.0000
  Ge     Ge        0.672851080249264    0.286341847569388    0.730588303573032  0.0000
  Ge     Ge        0.145570551621055    0.686851139909031    0.290237323010108  0.0000
  Ge     Ge        0.354671779311851    0.364818039555435    0.284941826616427  0.0000
  Ge     Ge        0.668849638568915    0.294946245586400    0.044464524251199  0.0000
  Ge     Ge        0.824509425460402    0.774535273341199    0.050233242349778  0.0000
  Ge     Ge        0.347759698196673    0.357356043537302    0.970157495519270  0.0000
  Ge     Ge        0.142043047817397    0.688151216345205    0.979084344956120  0.0000
  Ge     Ge        0.326652478583147    0.759154081940113    0.967803157429284  0.0000
  Ge     Ge        0.850194985563621    0.375677800425021    0.053808432681153  0.0000
  Si     Si        0.439465838433015    0.049719130848431    0.852938966684236  0.0000
  Si     Si        0.054446625972130    0.003638955053614    0.868625133618655  0.0000
  Si     Si        0.166896507054629    0.292278481890231    0.980824873188559  0.0000
  Si     Si        0.648312126077905    0.688581235650582    0.043491079195904  0.0000
  O1     O1        0.127157886144074    0.145316809975609    0.387558210074382  0.0000
  O1     O1        0.372876412154297    0.909966468929743    0.382595741207384  0.0000
  O1     O1        0.923135876508265    0.270444637538791    0.654579244194396  0.0000
  O1     O1        0.574095389375725    0.792487461794568    0.657702826767149  0.0000
  O1     O1        0.874346126407386    0.927554911488967    0.646307951541842  0.0000
  O1     O1        0.626002494506221    0.135181350605913    0.638183715907084  0.0000
  O1     O1        0.085003855058046    0.797024732816754    0.387962799425805  0.0000
  O1     O1        0.420001747285015    0.257179151895762    0.374876148229371  0.0000
  O1     O1        0.978043103046257    0.045297000059026    0.469156735642645  0.0000
  O1     O1        0.524055204041147    0.007500102476854    0.460283546058312  0.0000
  O1     O1        0.024691424163824    0.020265857811779    0.211561015270516  0.0000
  O1     O1        0.472860768335709    0.015070135004037    0.202420357161332  0.0000
  O3     O3        0.030332204549478    0.017428939844112    0.719178126465289  0.0000
  O3     O3        0.468647090602431    0.051264689144458    0.705710969415219  0.0000
  O1     O1        0.613724474166967    0.153679339983951    0.131466044082073  0.0000
  O1     O1        0.874200259536335    0.924220282027252    0.137611364924216  0.0000
  O3     O3        0.409859488094937    0.237758508671696    0.882788205811274  0.0000
  O3     O3        0.079952846730944    0.810258811893115    0.891065530164591  0.0000
  O3     O3        0.370570743352009    0.912968451076423    0.872323356379908  0.0000
  O2     O2        0.122767869852321    0.140472984381981    0.902410037274879  0.0000
  O3     O3        0.585035977377982    0.795499389109398    0.115021291180821  0.0000
  O1     O1        0.917228310322776    0.264069694185208    0.135646681128859  0.0000
  O3     O3        0.512211215967884    0.005147699776552    0.940470388443012  0.0000
  O3     O3        0.980191240749221    0.044259469901182    0.952059253422607  0.0000
  O1     O1        0.160483969265141    0.487923949882080    0.348389016360841  0.0000
  O1     O1        0.341487326395339    0.565326099388061    0.341656010283510  0.0000
  O1     O1        0.841006010057373    0.574678983241830    0.673357236485287  0.0000
  O1     O1        0.656574523614232    0.487414867984351    0.669593731444269  0.0000
  O1     O1        0.269748657443478    0.246656769370250    0.288099742096255  0.0000
  O1     O1        0.230867801845401    0.801491078107595    0.278706708543858  0.0000
  O1     O1        0.769171423659466    0.256803969396853    0.728766102716210  0.0000
  O1     O1        0.728948482545773    0.809104846922190    0.719809624460708  0.0000
  O3     O3        0.140830086405570    0.284283009293761    0.129846111469633  0.0000
  O1     O1        0.359404084692034    0.775102993296517    0.123983890515487  0.0000
  O1     O1        0.878780171481800    0.398866957634179    0.895526129956572  0.0000
  O3     O3        0.626345861850372    0.654629680674643    0.893964626084063  0.0000
  O1     O1        0.853741440158682    0.787520458513523    0.891835638858897  0.0000
  O1     O1        0.640096585883790    0.267237824432435    0.886443408541942  0.0000
  O1     O1        0.109446994634503    0.678107118179218    0.134458173204155  0.0000
  O1     O1        0.382343256589772    0.372575696538302    0.124953963421567  0.0000
  O3     O3        0.657556031789801    0.501908584678104    0.104285854539082  0.0000
  O1     O1        0.841223406959382    0.576391971193302    0.115459097578201  0.0000
  O1     O1        0.344152748315506    0.558804750303556    0.907080059705930  0.0000
  O3     O3        0.147831143450468    0.477883593517062    0.923253183008278  0.0000
  O1     O1        0.764515902000287    0.261040677827777    0.055340916285177  0.0000
  O3     O3        0.726921918825024    0.801031671018830    0.050422286953138  0.0000
  O3     O3        0.256849512906288    0.263990301651739    0.972944740681841  0.0000
  O1     O1        0.230293517477500    0.784963118336613    0.968701186165780  0.0000
