data_c00567.vasp
_audit_creation_method             Generated by GULP
_audit_author_name                 Salvador R. G. Balestra
_symmetry_space_group_name_H-M     'P 1             '
_symmetry_Int_Tables_number        1

loop_
_symmetry_equiv_pos_site_id
_symmetry_equiv_pos_as_xyz
_cell_length_a                       17.6767
_cell_length_b                        7.8734
_cell_length_c                       10.4240
_cell_angle_alpha                   90.2537
_cell_angle_beta                    90.6103
_cell_angle_gamma                   90.3626

loop_
_atom_site_label
_atom_site_type_symbol
_atom_site_fract_x
_atom_site_fract_y
_atom_site_fract_z
_atom_site_charge
  Ge     Ge        0.052090000000021    0.000000000000000    0.372269999999958  0.0000
  Ge     Ge        0.437686184870752    0.982796455695154    0.361773910938569  0.0000
  Ge     Ge        0.945579830474722    0.996705315837020    0.622668748907601  0.0000
  Ge     Ge        0.540277733366674    0.964654859248451    0.619124227789532  0.0000
  Ge     Ge        0.549040275428228    0.963512675199041    0.119338664906779  0.0000
  Ge     Ge        0.942677300527064    0.002093825947172    0.120011278348987  0.0000
  Ge     Ge        0.151212240022815    0.309741046806747    0.262646005840105  0.0000
  Ge     Ge        0.844923022494957    0.310939399395707    0.693143628514497  0.0000
  Ge     Ge        0.641458814757308    0.651362019681164    0.693711117756218  0.0000
  Ge     Ge        0.822355865467911    0.715051580231299    0.693500225146400  0.0000
  Ge     Ge        0.664167282413230    0.246242850950934    0.693173662230212  0.0000
  Ge     Ge        0.166098916453181    0.710192217079206    0.253026692248738  0.0000
  Ge     Ge        0.668055161848548    0.244489867508719    0.004983010313771  0.0000
  Ge     Ge        0.822508695732640    0.718935188969272    0.005113022624224  0.0000
  Ge     Ge        0.329778951291264    0.262975157966428    0.947179368275246  0.0000
  Ge     Ge        0.159792674564717    0.699631583337330    0.942650857558990  0.0000
  Ge     Ge        0.343569738394562    0.672306071688909    0.944714472718572  0.0000
  Ge     Ge        0.146589986922890    0.293759709039235    0.949132693739674  0.0000
  Ge     Ge        0.641708261305573    0.648944725330840    0.006013829262489  0.0000
  Ge     Ge        0.848752947140727    0.315429215805795    0.005700466959214  0.0000
  Si     Si        0.443605728828679    0.981137241642968    0.873434505285553  0.0000
  Si     Si        0.045561746347560    0.983215736891393    0.875847991271788  0.0000
  Si     Si        0.344493807468712    0.671301216095275    0.245343828354510  0.0000
  Si     Si        0.329736425005579    0.275205332073874    0.250653516087407  0.0000
  O1     O1        0.090821269601123    0.198760817487615    0.357232104088520  0.0000
  O3     O3        0.396789298929475    0.784168009381889    0.337549305631796  0.0000
  O1     O1        0.907892673158485    0.195302258745104    0.604556585293600  0.0000
  O1     O1        0.577740675482263    0.765529271232369    0.604278202224035  0.0000
  O1     O1        0.874132936003904    0.850110212241917    0.600457308423972  0.0000
  O1     O1        0.611995323585561    0.110505429889692    0.598806038709365  0.0000
  O1     O1        0.124063423165784    0.860409235779433    0.343975191925282  0.0000
  O3     O3        0.377642685970751    0.153128388121346    0.341530175537057  0.0000
  O1     O1        0.021071163945760    0.968282732405500    0.525772317722236  0.0000
  O1     O1        0.464677981919894    0.992717085705522    0.519988469572256  0.0000
  O1     O1        0.974608331084381    0.974333350030922    0.274202483904144  0.0000
  O1     O1        0.517860927103540    0.995272650508642    0.272778483924408  0.0000
  O3     O3        0.974866948773329    0.969531145277712    0.781356229736571  0.0000
  O3     O3        0.511644236167459    0.997253578242229    0.776738613061887  0.0000
  O1     O1        0.624332595276067    0.098229821936124    0.098801936767153  0.0000
  O1     O1        0.867715518225005    0.866303750896873    0.098896533509514  0.0000
  O3     O3        0.380471572913211    0.126026593252355    0.853010946362090  0.0000
  O3     O3        0.107356253270787    0.837435640203781    0.850033694145881  0.0000
  O3     O3        0.403923987696812    0.796912925749360    0.856394225449484  0.0000
  O3     O3        0.085264973006839    0.166824683825066    0.861204528516625  0.0000
  O1     O1        0.578068781146996    0.758347919247266    0.096572942886464  0.0000
  O1     O1        0.914129835895147    0.207286708051238    0.095447130737713  0.0000
  O3     O3        0.474392591082904    0.010070418757020    0.017678964948656  0.0000
  O3     O3        0.017592170176004    0.955477996059803    0.020966815355615  0.0000
  O1     O1        0.151960391465759    0.513480824983223    0.318678678017537  0.0000
  O2     O2        0.338536496481797    0.474867164594401    0.291502820798992  0.0000
  O1     O1        0.833882821219473    0.511275875055974    0.634860008875246  0.0000
  O1     O1        0.652177265007835    0.450136518609238    0.636084449058638  0.0000
  O3     O3        0.241926710680529    0.226388561253180    0.260817698497588  0.0000
  O3     O3        0.261704398520423    0.752900392051970    0.242512022090116  0.0000
  O1     O1        0.759320767739420    0.203976679553201    0.691019770444821  0.0000
  O1     O1        0.727329679112944    0.757750230714509    0.691550759721056  0.0000
  O1     O1        0.118684883698311    0.298108258117773    0.106577143238664  0.0000
  O3     O3        0.377012465877540    0.678069566214014    0.102263027041092  0.0000
  O1     O1        0.877513204651375    0.324359355412188    0.848949064929436  0.0000
  O1     O1        0.610487110484656    0.640992836866740    0.849339250854268  0.0000
  O1     O1        0.853866964163979    0.726744875219997    0.850064598491401  0.0000
  O1     O1        0.634907646859874    0.234798422585199    0.849821291456063  0.0000
  O1     O1        0.130908852449059    0.705589174768980    0.099419461762883  0.0000
  O3     O3        0.358739733541475    0.254112183751933    0.106558956106445  0.0000
  O1     O1        0.652750997603297    0.447255605871491    0.062907501078853  0.0000
  O1     O1        0.838960995402426    0.517491456408764    0.063822256236806  0.0000
  O1     O1        0.342909159214766    0.466616763476854    0.891929963501707  0.0000
  O1     O1        0.147657332958176    0.494864098001637    0.887500315462347  0.0000
  O1     O1        0.763626236107696    0.208610849949016    0.007100305733226  0.0000
  O1     O1        0.727140070892559    0.755115514812049    0.006793962314987  0.0000
  O1     O1        0.236009828550748    0.210533356466823    0.940517013874397  0.0000
  O1     O1        0.253894816132140    0.752609172208718    0.935366472418853  0.0000
