data_c00599.vasp
_audit_creation_method             Generated by GULP
_audit_author_name                 Salvador R. G. Balestra
_symmetry_space_group_name_H-M     'P 1             '
_symmetry_Int_Tables_number        1

loop_
_symmetry_equiv_pos_site_id
_symmetry_equiv_pos_as_xyz
_cell_length_a                       17.5885
_cell_length_b                        7.8134
_cell_length_c                       10.2379
_cell_angle_alpha                   88.2981
_cell_angle_beta                    91.2645
_cell_angle_gamma                   91.1969

loop_
_atom_site_label
_atom_site_type_symbol
_atom_site_fract_x
_atom_site_fract_y
_atom_site_fract_z
_atom_site_charge
  Ge     Ge        0.052090000000021    0.000000000000000    0.372269999999958  0.0000
  Ge     Ge        0.448499392939145    0.052477545544779    0.361732888948910  0.0000
  Ge     Ge        0.944847462666496    0.080621158785245    0.616741104454363  0.0000
  Ge     Ge        0.554108652727159    0.026197040671925    0.620720370178284  0.0000
  Ge     Ge        0.552970319134232    0.998137391589650    0.110690321865676  0.0000
  Ge     Ge        0.444235199114316    0.063126116895958    0.860063221372678  0.0000
  Ge     Ge        0.174240258958090    0.285137692120058    0.296019315916962  0.0000
  Ge     Ge        0.327921159164167    0.762235973160565    0.290067612589727  0.0000
  Ge     Ge        0.854508592398453    0.394680160496905    0.722183337321274  0.0000
  Ge     Ge        0.824048075185748    0.793369489797135    0.727781979684398  0.0000
  Ge     Ge        0.671981308905509    0.319553957632124    0.727795020830949  0.0000
  Ge     Ge        0.146494535132966    0.685700179078476    0.296537309552087  0.0000
  Ge     Ge        0.676956280176103    0.289724017769994    0.041850257175889  0.0000
  Ge     Ge        0.836255472434260    0.773624765976608    0.046967120309955  0.0000
  Ge     Ge        0.349827563754048    0.369159143568908    0.980521208767918  0.0000
  Ge     Ge        0.142251821761125    0.694186642351877    0.979736629812450  0.0000
  Ge     Ge        0.324326387155572    0.774381213185392    0.974900489976404  0.0000
  Ge     Ge        0.169229944247856    0.289416837381139    0.976636560321423  0.0000
  Ge     Ge        0.657505603225404    0.692686775276924    0.056835178922124  0.0000
  Ge     Ge        0.858268233747822    0.369331095613711    0.038929565352732  0.0000
  Si     Si        0.956803021315778    0.059749218650886    0.111637430952281  0.0000
  Si     Si        0.051956234681585    0.007802902201105    0.864772030158977  0.0000
  Si     Si        0.648242823627979    0.713525801251333    0.741926540301120  0.0000
  Si     Si        0.350326517313285    0.365502384134075    0.293174974462392  0.0000
  O1     O1        0.128327122505231    0.138485928068933    0.394087378047591  0.0000
  O1     O1        0.379298052058450    0.897106434379451    0.388021335632451  0.0000
  O1     O1        0.919723924598283    0.288547246956351    0.633513550320747  0.0000
  O3     O3        0.582432271128079    0.823949294265109    0.673269561824952  0.0000
  O1     O1        0.864582377663032    0.956926794767138    0.639214106703396  0.0000
  O1     O1        0.623923083043817    0.180915775742341    0.628259806949619  0.0000
  O1     O1        0.084450199111270    0.795561047584605    0.389202659842562  0.0000
  O3     O3        0.411594596596224    0.255788362629558    0.375968178391101  0.0000
  O1     O1        0.975923772291608    0.046576484671844    0.461880430072064  0.0000
  O1     O1        0.526691088473018    0.018784366280127    0.458269441362953  0.0000
  O3     O3        0.027160851372424    0.027758621124302    0.206924592618517  0.0000
  O1     O1        0.476772845521743    0.038081493776943    0.201936809500137  0.0000
  O3     O3        0.020813284029249    0.021757144044456    0.717175436684957  0.0000
  O1     O1        0.473181834106576    0.075969779669348    0.700872357607379  0.0000
  O1     O1        0.626722581322182    0.143650041146091    0.133541116422704  0.0000
  O3     O3        0.891542001243761    0.915058082127970    0.135577766363205  0.0000
  O1     O1        0.419651464873732    0.265286380534105    0.905180478752491  0.0000
  O3     O3        0.076128720157460    0.812952873526483    0.891041168269731  0.0000
  O1     O1        0.367688211159198    0.924941918784888    0.876049148973348  0.0000
  O3     O3        0.122809483913685    0.137732222480175    0.883674420865106  0.0000
  O1     O1        0.590527153427254    0.797368401577874    0.139081859556877  0.0000
  O3     O3        0.922276075172230    0.246127364750923    0.129267270133801  0.0000
  O1     O1        0.522254055905342    0.998679824047800    0.949784165889918  0.0000
  O2     O2        0.983722653799043    0.055520568777051    0.960476767533736  0.0000
  O1     O1        0.157639708894959    0.483020709640089    0.358316730837299  0.0000
  O3     O3        0.339475670113777    0.551849196739707    0.349436725533585  0.0000
  O1     O1        0.843670459868469    0.599686129018519    0.661506774661370  0.0000
  O3     O3        0.656531789340355    0.530826968420266    0.675731189324833  0.0000
  O3     O3        0.271388891085555    0.255505179482792    0.294425864989858  0.0000
  O1     O1        0.232232363670182    0.797937675764834    0.292560220626329  0.0000
  O1     O1        0.767900852642530    0.287967594567372    0.721384860356017  0.0000
  O3     O3        0.726861501714604    0.822892579695003    0.729928157994014  0.0000
  O1     O1        0.142273771956617    0.275395831644258    0.136338200831216  0.0000
  O1     O1        0.359235091229040    0.790695919967076    0.132686000108806  0.0000
  O1     O1        0.887087901479103    0.402697773304935    0.881231903957056  0.0000
  O3     O3        0.632032792670223    0.671656902452840    0.892889167804190  0.0000
  O1     O1        0.859071097638481    0.792291432556197    0.885264000726519  0.0000
  O1     O1        0.640979157322034    0.280909505129512    0.883884389381905  0.0000
  O1     O1        0.113096876259009    0.670620368010934    0.137911685743980  0.0000
  O3     O3        0.375245778727913    0.392156194094467    0.143633268430439  0.0000
  O1     O1        0.667741541821581    0.486760737052252    0.111798777264524  0.0000
  O1     O1        0.850588564481216    0.566336355834374    0.104983916884314  0.0000
  O1     O1        0.339699191090797    0.573117612994542    0.917667690227208  0.0000
  O1     O1        0.150610949979161    0.494153517978549    0.917530529992871  0.0000
  O1     O1        0.772962285547438    0.256952756346928    0.035884278700612  0.0000
  O1     O1        0.741373158058933    0.810345989256324    0.064739348613533  0.0000
  O1     O1        0.265125678580290    0.256602671448291    0.967084001379461  0.0000
  O1     O1        0.227989820954519    0.802838854607963    0.977841515571902  0.0000
