data_c00538.vasp
_audit_creation_method             Generated by GULP
_audit_author_name                 Salvador R. G. Balestra
_symmetry_space_group_name_H-M     'P 1             '
_symmetry_Int_Tables_number        1

loop_
_symmetry_equiv_pos_site_id
_symmetry_equiv_pos_as_xyz
_cell_length_a                       17.3340
_cell_length_b                        7.8650
_cell_length_c                       10.2698
_cell_angle_alpha                   87.8912
_cell_angle_beta                    89.6709
_cell_angle_gamma                   91.2614

loop_
_atom_site_label
_atom_site_type_symbol
_atom_site_fract_x
_atom_site_fract_y
_atom_site_fract_z
_atom_site_charge
  Ge     Ge        0.052090000000021    0.000000000000000    0.372269999999958  0.0000
  Ge     Ge        0.455414509438250    0.043867916669924    0.360488013248426  0.0000
  Ge     Ge        0.961436510209220    0.081273118260614    0.634280340081876  0.0000
  Ge     Ge        0.551833618018717    0.032504854938934    0.631663873133673  0.0000
  Ge     Ge        0.557721203849541    0.027853781140531    0.110615869391163  0.0000
  Ge     Ge        0.941300348711148    0.096501446700857    0.134184605984833  0.0000
  Ge     Ge        0.178064851183610    0.291334885852587    0.248459354312854  0.0000
  Ge     Ge        0.337263751823935    0.756638981418114    0.279823722705171  0.0000
  Ge     Ge        0.862754216967874    0.394491924782000    0.717834661006691  0.0000
  Ge     Ge        0.653338669477601    0.706036226143837    0.680306440484215  0.0000
  Ge     Ge        0.830597012671728    0.801440544108562    0.688660669407762  0.0000
  Ge     Ge        0.677590764743663    0.313711126017205    0.706715860897649  0.0000
  Ge     Ge        0.147630397172815    0.692511455952205    0.278493246537643  0.0000
  Ge     Ge        0.356795865452940    0.361427476120029    0.244344851313103  0.0000
  Ge     Ge        0.671669670371264    0.339769467438796    0.028787668284954  0.0000
  Ge     Ge        0.822567060427501    0.822570124685731    0.001644754239803  0.0000
  Ge     Ge        0.346593729105858    0.426217557017731    0.914890161527579  0.0000
  Ge     Ge        0.341296724397929    0.804680682280301    0.970073456119664  0.0000
  Ge     Ge        0.166427359332547    0.370322944271173    0.921880565710349  0.0000
  Ge     Ge        0.856534048536125    0.420135186968077    0.031029597216139  0.0000
  Si     Si        0.445410851470212    0.113053634558359    0.880948979001674  0.0000
  Si     Si        0.056907219684303    0.059725276661680    0.892638479214675  0.0000
  Si     Si        0.151598800776568    0.747716697371382    0.976606218723271  0.0000
  Si     Si        0.650291326031791    0.722362402428315    0.997684171445137  0.0000
  O1     O1        0.126489249857089    0.116896902103977    0.301213417857682  0.0000
  O1     O1        0.381543741330798    0.899602030023773    0.380558738933375  0.0000
  O1     O1        0.930030871107726    0.286425471631900    0.632911057690943  0.0000
  O1     O1        0.578041243087704    0.823030085483410    0.624901067016747  0.0000
  O1     O1        0.886975857524907    0.943423330334687    0.597691911841837  0.0000
  O1     O1        0.636943735687833    0.147207722308135    0.626892633090798  0.0000
  O1     O1        0.082210063361565    0.792810667726142    0.373202472763164  0.0000
  O1     O1        0.431839993354094    0.235410061100412    0.283961808568334  0.0000
  O1     O1        0.036364117868340    0.062023993630913    0.528279155013994  0.0000
  O1     O1        0.488942455631898    0.088204943375020    0.513455877187850  0.0000
  O1     O1        0.967853390854099    0.034658138498577    0.288580414742457  0.0000
  O1     O1        0.528739419080924    0.968749841795852    0.265433489696559  0.0000
  O3     O3        0.990953538593936    0.018925752906713    0.791114740377714  0.0000
  O3     O3        0.511491593497498    0.063385995945314    0.783323018484293  0.0000
  O1     O1        0.628942527687876    0.180262598353513    0.122826978491603  0.0000
  O1     O1        0.860992563934756    0.982392115679990    0.090818680633448  0.0000
  O3     O3        0.415356175818984    0.300823755514776    0.846834171728833  0.0000
  O2     O2        0.120197483454742    0.910171790565599    0.895408779616790  0.0000
  O3     O3        0.370405701784138    0.986529383499616    0.882645679106166  0.0000
  O3     O3        0.101663866043636    0.234440023392642    0.847493386001689  0.0000
  O3     O3        0.582201237512748    0.848563816092111    0.026777794757829  0.0000
  O1     O1        0.918710321625730    0.309429001147483    0.129913492651870  0.0000
  O3     O3        0.480678642061334    0.113054921963119    0.025366914858505  0.0000
  O3     O3        0.020992350866693    0.068192730411150    0.035854041871113  0.0000
  O1     O1        0.146269379782345    0.477626919684781    0.312238730612587  0.0000
  O1     O1        0.364866865229794    0.553835481495792    0.318811247918515  0.0000
  O1     O1        0.876518696326232    0.609715438547778    0.701531972732190  0.0000
  O1     O1        0.631815194690131    0.496876184145365    0.656072237369384  0.0000
  O1     O1        0.272068933773713    0.259716462987155    0.293137002404533  0.0000
  O1     O1        0.239694903534921    0.772595977098935    0.297785484464623  0.0000
  O1     O1        0.772265261948814    0.340175727264746    0.662478761326696  0.0000
  O1     O1        0.741961941851305    0.771736505409656    0.617122653558026  0.0000
  O1     O1        0.171949154051336    0.307793843985341    0.081897309464849  0.0000
  O1     O1        0.372877610254547    0.821595214174196    0.126850140799517  0.0000
  O1     O1        0.867893205365718    0.335383901508457    0.880022077835757  0.0000
  O3     O3        0.674103360256474    0.713781035269660    0.845699841300745  0.0000
  O1     O1        0.822581364370097    0.886716059760091    0.840766026015177  0.0000
  O1     O1        0.669287724635687    0.271951179592052    0.871890772065169  0.0000
  O3     O3        0.115340872979226    0.731686591884614    0.120074535926254  0.0000
  O1     O1        0.342980828212223    0.417854828834721    0.082740362945522  0.0000
  O3     O3        0.624136331540234    0.532040607677398    0.043382158001164  0.0000
  O1     O1        0.872947707114480    0.636307274816408    0.024071521638008  0.0000
  O1     O1        0.371764027852668    0.636320601173537    0.883016387939130  0.0000
  O3     O3        0.132252887262733    0.575908395510550    0.902367514502831  0.0000
  O1     O1        0.762863000321550    0.381506474908521    0.081501099947209  0.0000
  O3     O3        0.729137721083080    0.788008204088701    0.063515251207021  0.0000
  O1     O1        0.257551356651762    0.369025230196420    0.855518057071995  0.0000
  O3     O3        0.243678843826906    0.763932181750033    0.993052155304726  0.0000
