data_c00560.vasp
_audit_creation_method             Generated by GULP
_audit_author_name                 Salvador R. G. Balestra
_symmetry_space_group_name_H-M     'P 1             '
_symmetry_Int_Tables_number        1

loop_
_symmetry_equiv_pos_site_id
_symmetry_equiv_pos_as_xyz
_cell_length_a                       17.5039
_cell_length_b                        7.8263
_cell_length_c                       10.2988
_cell_angle_alpha                   90.1185
_cell_angle_beta                    90.8240
_cell_angle_gamma                   88.2614

loop_
_atom_site_label
_atom_site_type_symbol
_atom_site_fract_x
_atom_site_fract_y
_atom_site_fract_z
_atom_site_charge
  Ge     Ge        0.052090000000021    0.000000000000000    0.372269999999958  0.0000
  Ge     Ge        0.440938913885287    0.954197841903009    0.364164701183685  0.0000
  Ge     Ge        0.945327307228011    0.943905142034985    0.621312047904352  0.0000
  Ge     Ge        0.542441978771243    0.005078769032430    0.624194591486281  0.0000
  Ge     Ge        0.546969441815754    0.008017927921650    0.116477880942279  0.0000
  Ge     Ge        0.943830274985848    0.939792436008327    0.120281047896134  0.0000
  Ge     Ge        0.143358676251173    0.315352148427371    0.254217453271341  0.0000
  Ge     Ge        0.354430440558151    0.629711119171364    0.250975289455541  0.0000
  Ge     Ge        0.820189700434335    0.229264241768064    0.691361297793130  0.0000
  Ge     Ge        0.664450963660135    0.708886713417152    0.688658059049451  0.0000
  Ge     Ge        0.846604150706309    0.628449432993788    0.684552968207994  0.0000
  Ge     Ge        0.171151446322680    0.712928631970043    0.259370187548186  0.0000
  Ge     Ge        0.640141721173240    0.317713093847764    0.001447541326842  0.0000
  Ge     Ge        0.849804633894756    0.628902858905148    0.002080318255679  0.0000
  Ge     Ge        0.323536657218691    0.239439074926373    0.940387606289736  0.0000
  Ge     Ge        0.162409703817948    0.715919101957405    0.946215262766259  0.0000
  Ge     Ge        0.346461781867924    0.641618531380034    0.939158234349699  0.0000
  Ge     Ge        0.141283017532713    0.313038430830483    0.937718854945238  0.0000
  Ge     Ge        0.668565557913867    0.720996625129940    0.003757138521580  0.0000
  Ge     Ge        0.820309445567092    0.226397924313253    0.008065773147049  0.0000
  Si     Si        0.442077769834079    0.946923983004258    0.872497323086134  0.0000
  Si     Si        0.043769572036199    0.006483070376718    0.874784943989805  0.0000
  Si     Si        0.642470802347442    0.314076481601300    0.691583698468930  0.0000
  Si     Si        0.322913670387400    0.238550139556244    0.249036845865403  0.0000
  O1     O1        0.078642796102778    0.204469548611457    0.339786391942558  0.0000
  O1     O1        0.417825805684056    0.744094874333081    0.341628630945025  0.0000
  O1     O1        0.867859561183439    0.082004742886538    0.598329670091578  0.0000
  O1     O1        0.610564239565568    0.847594623393515    0.594228979122522  0.0000
  O1     O1        0.912781018993360    0.741239317304772    0.601175475313698  0.0000
  O3     O3        0.581329712776491    0.205503860903923    0.611920844817551  0.0000
  O1     O1        0.130365402982089    0.866673516904119    0.355685291641338  0.0000
  O3     O3        0.362861857214738    0.087408234457540    0.330560873713527  0.0000
  O1     O1        0.021726774862732    0.989558462026079    0.530268837074963  0.0000
  O1     O1        0.465374853790073    0.985900223566205    0.524358000299001  0.0000
  O1     O1        0.975633586465164    0.941055942668755    0.278417227150242  0.0000
  O1     O1        0.518990750257026    0.004143925061893    0.275070963581703  0.0000
  O3     O3        0.972191781354281    0.967902082949332    0.784388562409394  0.0000
  O3     O3        0.513414997037794    0.981478248010487    0.783940853809506  0.0000
  O1     O1        0.569606001126538    0.213917311750658    0.078292464468725  0.0000
  O1     O1        0.919223103596900    0.734255973726570    0.085294453001973  0.0000
  O3     O3        0.376049608289789    0.093148834725094    0.851871216447131  0.0000
  O3     O3        0.111517125655428    0.864784956342107    0.854193962908198  0.0000
  O3     O3        0.405732656264190    0.763402613668578    0.845385561143694  0.0000
  O3     O3        0.076534823895964    0.193767619879996    0.849976528158075  0.0000
  O1     O1        0.624483928439023    0.871533923477873    0.099045167847926  0.0000
  O1     O1        0.866320240776919    0.077461791765205    0.103961942760061  0.0000
  O3     O3        0.469826205981642    0.946012772487407    0.022717563590765  0.0000
  O3     O3        0.018210729925097    0.003401408175260    0.024910290457991  0.0000
  O1     O1        0.152254599695482    0.513958666306503    0.320402744849400  0.0000
  O3     O3        0.342532138735897    0.423804299654873    0.308736230973040  0.0000
  O1     O1        0.837235863892754    0.426564796494937    0.625387421397450  0.0000
  O3     O3        0.652983952304572    0.500455955678888    0.631772899980436  0.0000
  O3     O3        0.232479046746281    0.211501751611562    0.249416848763330  0.0000
  O1     O1        0.267446692168840    0.737088852183487    0.253627427134907  0.0000
  O3     O3        0.722136947512620    0.204084878117487    0.692168846150538  0.0000
  O1     O1        0.760568597978485    0.742656088329209    0.680373877436206  0.0000
  O1     O1        0.113180218764352    0.335676120897701    0.095938596103998  0.0000
  O1     O1        0.384000918485796    0.620097771011184    0.093544705244239  0.0000
  O1     O1        0.850621134899096    0.211497653124026    0.850321724383364  0.0000
  O1     O1        0.635803247745172    0.737444499214666    0.846060484750189  0.0000
  O1     O1        0.876203502097606    0.605440898780500    0.843385915814709  0.0000
  O3     O3        0.615833372063171    0.343198136589086    0.838830415787694  0.0000
  O1     O1        0.132751896189892    0.727786793166050    0.104542876120052  0.0000
  O3     O3        0.353058737911758    0.234826123147883    0.101812897097942  0.0000
  O1     O1        0.651434194507186    0.518950341520533    0.062098065890003  0.0000
  O1     O1        0.837300983725850    0.429668076010312    0.065086744477432  0.0000
  O1     O1        0.337107254321986    0.440435394819304    0.877626990311244  0.0000
  O1     O1        0.147877923263036    0.516189262054902    0.879532880052744  0.0000
  O1     O1        0.723578691169285    0.197497981177428    0.014047421739852  0.0000
  O1     O1        0.765457956558296    0.747960330671447    0.006008877350979  0.0000
  O1     O1        0.227951199888474    0.203073452999829    0.931436108864433  0.0000
  O1     O1        0.258866944313219    0.747273704681186    0.945881509645439  0.0000
