data_c00551.vasp
_audit_creation_method             Generated by GULP
_audit_author_name                 Salvador R. G. Balestra
_symmetry_space_group_name_H-M     'P 1             '
_symmetry_Int_Tables_number        1

loop_
_symmetry_equiv_pos_site_id
_symmetry_equiv_pos_as_xyz
_cell_length_a                       17.5467
_cell_length_b                        7.8182
_cell_length_c                       10.2851
_cell_angle_alpha                   90.0000
_cell_angle_beta                    90.0001
_cell_angle_gamma                   91.1292

loop_
_atom_site_label
_atom_site_type_symbol
_atom_site_fract_x
_atom_site_fract_y
_atom_site_fract_z
_atom_site_charge
  Ge     Ge        0.052090000000021    0.000000000000000    0.372269999999958  0.0000
  Ge     Ge        0.434625028888435    0.054870022633989    0.372268442786207  0.0000
  Ge     Ge        0.946652755545081    0.049403729823585    0.624504904438260  0.0000
  Ge     Ge        0.540061271285918    0.005465992704376    0.624505015949361  0.0000
  Ge     Ge        0.545521752222803    0.997914897198435    0.126719237072847  0.0000
  Ge     Ge        0.941191882871706    0.056952472698786    0.126721259622412  0.0000
  Ge     Ge        0.166794726998591    0.295615725222495    0.260853978885067  0.0000
  Ge     Ge        0.319920476650820    0.759254018703754    0.260852603993642  0.0000
  Ge     Ge        0.847965596413504    0.366698291836718    0.692684197571057  0.0000
  Ge     Ge        0.638749021776599    0.688171462717939    0.692683835631494  0.0000
  Ge     Ge        0.819679768520072    0.769934637558482    0.695287348897370  0.0000
  Ge     Ge        0.667034771330850    0.284935535969296    0.695286020407970  0.0000
  Ge     Ge        0.667906047493311    0.281713636255118    0.011764882627075  0.0000
  Ge     Ge        0.818807922537152    0.773154258200098    0.011766375655870  0.0000
  Ge     Ge        0.342602437904725    0.361781505576539    0.944135981061435  0.0000
  Ge     Ge        0.144111291487012    0.693086889123192    0.944137291963135  0.0000
  Ge     Ge        0.325819357427555    0.767797168124001    0.947532858023632  0.0000
  Ge     Ge        0.160894605998543    0.287071360936012    0.947533931190913  0.0000
  Ge     Ge        0.638390721210670    0.685522950232095    0.009455638919671  0.0000
  Ge     Ge        0.848323350798337    0.369344738897690    0.009456048956991  0.0000
  Si     Si        0.443429262048415    0.058199362642203    0.879613265255612  0.0000
  Si     Si        0.043284081846029    0.996668451676377    0.879615026336324  0.0000
  Si     Si        0.142053998756190    0.688638615505037    0.253817584652924  0.0000
  Si     Si        0.344661094716044    0.366230901324901    0.253816339459239  0.0000
  O1     O1        0.124732468913470    0.148790884949855    0.360795414747883  0.0000
  O1     O1        0.361982471391965    0.906079461974691    0.360793794191604  0.0000
  O1     O1        0.914051035886115    0.253457884569562    0.606361706033768  0.0000
  O1     O1        0.572663358428307    0.801412067496857    0.606361624397684  0.0000
  O1     O1        0.871016217213447    0.910186706037866    0.600935314863087  0.0000
  O1     O1        0.615697357646324    0.144683654158661    0.600934754296642  0.0000
  O3     O3        0.080309519232241    0.796394919822562    0.331078094489020  0.0000
  O3     O3        0.406406065464570    0.258474809004689    0.331075811610178  0.0000
  O1     O1        0.023301407472159    0.001224452362268    0.532040275676603  0.0000
  O1     O1        0.463413377372316    0.053644916841659    0.532038630269540  0.0000
  O1     O1        0.973257095166308    0.052946504820705    0.284167449238423  0.0000
  O1     O1        0.513457220035982    0.001921612289412    0.284165549984565  0.0000
  O3     O3        0.972434489432980    0.027666734110291    0.787967936047863  0.0000
  O3     O3        0.514278126099168    0.027200421401516    0.787966348718059  0.0000
  O1     O1        0.622330262934974    0.134264974057133    0.108358361155593  0.0000
  O1     O1        0.864383219837075    0.920602427198815    0.108361171969177  0.0000
  O3     O3        0.407111023760881    0.244042863941561    0.857244608521926  0.0000
  O3     O3        0.079602629969416    0.810825747219551    0.857246438345876  0.0000
  O3     O3        0.378292959753525    0.912288988527380    0.856451852824202  0.0000
  O3     O3        0.108420285082628    0.142578799826434    0.856454173790998  0.0000
  O1     O1        0.570520801669744    0.791279823042072    0.095140160031021  0.0000
  O1     O1        0.916193046104603    0.263587619180432    0.095141406460927  0.0000
  O3     O3        0.470068900525280    0.056885395488939    0.029573918721167  0.0000
  O3     O3        0.016644098087307    0.997980174609399    0.029575602521655  0.0000
  O3     O3        0.150450902930521    0.501656329126915    0.316425163071366  0.0000
  O3     O3        0.336264766895720    0.553213576751296    0.316423389053666  0.0000
  O1     O1        0.834016745776908    0.567048922794891    0.633457959230832  0.0000
  O1     O1        0.652698119484564    0.487821332789678    0.633456796362467  0.0000
  O3     O3        0.264001906709768    0.263897575230846    0.257419684577328  0.0000
  O3     O3        0.222713267074557    0.790971783819315    0.257419063652427  0.0000
  O1     O1        0.763156595527083    0.249957842769350    0.691932146862483  0.0000
  O1     O1        0.723557879632940    0.804912142900515    0.691932978117637  0.0000
  O1     O1        0.131538519377995    0.268669380662834    0.106781324364694  0.0000
  O1     O1        0.355176295769797    0.786199787233366    0.106779924213864  0.0000
  O1     O1        0.877605127448738    0.389276232376162    0.850972936452128  0.0000
  O1     O1        0.609109545773614    0.665591267246043    0.850972044326822  0.0000
  O1     O1        0.850375100663994    0.785566932546393    0.854015730709728  0.0000
  O1     O1        0.636339052836065    0.269301876111797    0.854013922859472  0.0000
  O3     O3        0.117146158399943    0.662508415902333    0.104916316348130  0.0000
  O3     O3        0.369567699422455    0.392360268930051    0.104914593788617  0.0000
  O1     O1        0.651941777943301    0.484899329311920    0.070521015174900  0.0000
  O1     O1        0.834772141143238    0.569968117808594    0.070521735167784  0.0000
  O1     O1        0.337531535340601    0.564979245787570    0.884748233733395  0.0000
  O1     O1        0.149181940122600    0.489888849174747    0.884749222854386  0.0000
  O1     O1        0.764446465265251    0.250874055970465    0.013240656167453  0.0000
  O1     O1        0.722267525760615    0.803993752169849    0.013241580952490  0.0000
  O1     O1        0.256997372589872    0.251957390007490    0.940169925562003  0.0000
  O1     O1        0.229716468791095    0.802910714933112    0.940170777967262  0.0000
