data_c00587.vasp
_audit_creation_method             Generated by GULP
_audit_author_name                 Salvador R. G. Balestra
_symmetry_space_group_name_H-M     'P 1             '
_symmetry_Int_Tables_number        1

loop_
_symmetry_equiv_pos_site_id
_symmetry_equiv_pos_as_xyz
_cell_length_a                       17.5793
_cell_length_b                        7.8443
_cell_length_c                       10.1223
_cell_angle_alpha                   91.8091
_cell_angle_beta                    89.0164
_cell_angle_gamma                   87.1874

loop_
_atom_site_label
_atom_site_type_symbol
_atom_site_fract_x
_atom_site_fract_y
_atom_site_fract_z
_atom_site_charge
  Ge     Ge        0.052090000000021    0.000000000000000    0.372269999999958  0.0000
  Ge     Ge        0.444023122575262    0.954687137784838    0.407637545891988  0.0000
  Ge     Ge        0.961174051631897    0.911985114579423    0.635648453059199  0.0000
  Ge     Ge        0.555182293187187    0.985361737371867    0.651888997698379  0.0000
  Ge     Ge        0.559560396423022    0.994041470693136    0.164616140449384  0.0000
  Ge     Ge        0.457297040843751    0.907546193393883    0.911527175083044  0.0000
  Ge     Ge        0.139195745818780    0.324015901665359    0.287346211362367  0.0000
  Ge     Ge        0.348373943276176    0.645011037095117    0.283487348819975  0.0000
  Ge     Ge        0.835129129635955    0.210656939921758    0.712138429615108  0.0000
  Ge     Ge        0.678474944793641    0.697360461698649    0.725205829569843  0.0000
  Ge     Ge        0.860515933301885    0.612616916457777    0.717888697233039  0.0000
  Ge     Ge        0.655715220130572    0.293755637457255    0.714321832908500  0.0000
  Ge     Ge        0.326046994810109    0.244573796005961    0.298183670853498  0.0000
  Ge     Ge        0.653183578279350    0.299450523315621    0.039452709819488  0.0000
  Ge     Ge        0.861679301403339    0.611756688486449    0.033230749373715  0.0000
  Ge     Ge        0.330614882516456    0.202230913899027    0.980641311944366  0.0000
  Ge     Ge        0.177322419487396    0.665981178515071    0.948499389655838  0.0000
  Ge     Ge        0.355001344854904    0.602774075891855    0.949304704974096  0.0000
  Ge     Ge        0.143430737645389    0.281707225208332    0.972952903569187  0.0000
  Ge     Ge        0.676775248427895    0.697414505747316    0.043861640082507  0.0000
  Si     Si        0.942368290901354    0.932100552633910    0.144124943815326  0.0000
  Si     Si        0.051677246323375    0.966819652412863    0.903351475711542  0.0000
  Si     Si        0.173936087395692    0.700897045709387    0.270943386117966  0.0000
  Si     Si        0.833303816881596    0.221102176213476    0.029549762169888  0.0000
  O1     O1        0.079461889881300    0.205228056278093    0.381231496656133  0.0000
  O1     O1        0.417006422806116    0.755991783377115    0.359449061377780  0.0000
  O1     O1        0.891178790488600    0.070411956267981    0.617693210134546  0.0000
  O1     O1        0.629302962838653    0.835042430229191    0.626490721963145  0.0000
  O1     O1        0.922181265205520    0.717473070015684    0.619480190107633  0.0000
  O1     O1        0.589079148932919    0.184053697662251    0.629123932235136  0.0000
  O3     O3        0.121805545157309    0.871111936532939    0.290108977810193  0.0000
  O1     O1        0.367993932558317    0.098043319648188    0.399496971563505  0.0000
  O1     O1        0.036171251273470    0.933316044193990    0.529974702812311  0.0000
  O1     O1        0.474394816705632    0.947287933701776    0.568664320309126  0.0000
  O3     O3        0.966339032142831    0.973777880592364    0.292570773295154  0.0000
  O1     O1        0.524948610922030    0.010043946555874    0.324319123456671  0.0000
  O3     O3        0.987875224542766    0.930617927824382    0.799760117796699  0.0000
  O1     O1        0.530570340565172    0.970199248440456    0.817677424984661  0.0000
  O1     O1        0.586801568165083    0.193635374555902    0.123774774881101  0.0000
  O3     O3        0.918005005046772    0.737687389543824    0.131599659913750  0.0000
  O1     O1        0.375292338987235    0.036023546364512    0.895240153115699  0.0000
  O3     O3        0.122014110908797    0.827645436681200    0.887776602712282  0.0000
  O1     O1        0.428590519198357    0.703663987456301    0.877270436385964  0.0000
  O3     O3        0.085089307529551    0.150333929382151    0.883508790263840  0.0000
  O1     O1        0.638020840695926    0.855469298528696    0.147129057907932  0.0000
  O2     O2        0.874419272852475    0.065127488196687    0.105002571610353  0.0000
  O1     O1        0.486372724000742    0.921401377946316    0.073044591275262  0.0000
  O2     O2        0.017769937119154    0.952950872175632    0.052408061378530  0.0000
  O3     O3        0.140161094325197    0.537313091483459    0.341784704406790  0.0000
  O1     O1        0.349502451880787    0.445651586321853    0.347547290272091  0.0000
  O1     O1        0.847447755175819    0.412569390409655    0.655274537298956  0.0000
  O1     O1        0.667266183335168    0.493511872543200    0.659609513232946  0.0000
  O1     O1        0.229271919337496    0.232260978821120    0.299122937765646  0.0000
  O3     O3        0.257830017078633    0.739877499603262    0.319055894104597  0.0000
  O1     O1        0.740539147621471    0.172140500648105    0.702788085156013  0.0000
  O1     O1        0.774365770866168    0.728935559215743    0.727361328866852  0.0000
  O1     O1        0.105459146530280    0.303851287910845    0.130278435795138  0.0000
  O1     O1        0.365085038317169    0.635239521932227    0.117358724188245  0.0000
  O3     O3        0.860326807391254    0.212866197599849    0.877391477850936  0.0000
  O1     O1        0.642730000383047    0.715245909309691    0.885675594611481  0.0000
  O1     O1        0.896982493430206    0.600937351754017    0.874962867990230  0.0000
  O1     O1        0.627746291925179    0.313154613104412    0.877968916150493  0.0000
  O3     O3        0.182454919489664    0.633931215149205    0.117678865336411  0.0000
  O1     O1        0.361979044666293    0.200944605439727    0.141157969138562  0.0000
  O1     O1        0.656188082464838    0.502521113779533    0.105100807082703  0.0000
  O3     O3        0.854861155519979    0.405540361509986    0.090440803873433  0.0000
  O1     O1        0.355344680991360    0.389816434885017    0.910226763541635  0.0000
  O1     O1        0.146088109059900    0.470957624465859    0.894346832307311  0.0000
  O3     O3        0.743578190366791    0.198500232719437    0.042634775134575  0.0000
  O1     O1        0.773261416629285    0.710410593098938    0.032271628591498  0.0000
  O1     O1        0.233717774239305    0.188424481433296    0.983655640824633  0.0000
  O1     O1        0.269003043261824    0.692740474614262    0.899701826925337  0.0000
