data_c00583.vasp
_audit_creation_method             Generated by GULP
_audit_author_name                 Salvador R. G. Balestra
_symmetry_space_group_name_H-M     'P 1             '
_symmetry_Int_Tables_number        1

loop_
_symmetry_equiv_pos_site_id
_symmetry_equiv_pos_as_xyz
_cell_length_a                       17.6771
_cell_length_b                        7.8122
_cell_length_c                       10.2399
_cell_angle_alpha                   87.8230
_cell_angle_beta                    91.6287
_cell_angle_gamma                   90.7934

loop_
_atom_site_label
_atom_site_type_symbol
_atom_site_fract_x
_atom_site_fract_y
_atom_site_fract_z
_atom_site_charge
  Ge     Ge        0.052090000000021    0.000000000000000    0.372269999999958  0.0000
  Ge     Ge        0.445759104386260    0.055973663726316    0.393874498092427  0.0000
  Ge     Ge        0.945035745805235    0.069367358183688    0.619272855209466  0.0000
  Ge     Ge        0.544819976956180    0.030261200095543    0.656283481433888  0.0000
  Ge     Ge        0.561401651011674    0.005805432434901    0.169628031112456  0.0000
  Ge     Ge        0.447784305153541    0.082911983355487    0.919362930799257  0.0000
  Ge     Ge        0.175235481678916    0.283719537668821    0.294481102229262  0.0000
  Ge     Ge        0.331149200972457    0.756610095348631    0.296299162040087  0.0000
  Ge     Ge        0.852157355730002    0.382363612518026    0.726369995183671  0.0000
  Ge     Ge        0.643306169617337    0.709132491819407    0.729457009191348  0.0000
  Ge     Ge        0.823132214095986    0.784331746749185    0.724396268387992  0.0000
  Ge     Ge        0.672127703649843    0.303181677927288    0.732389579702768  0.0000
  Ge     Ge        0.149289178525605    0.689722322644851    0.299323624728662  0.0000
  Ge     Ge        0.679645498436443    0.293846529511517    0.049073236323937  0.0000
  Ge     Ge        0.834599081167609    0.777236482251466    0.042044424777266  0.0000
  Ge     Ge        0.339816564351936    0.394336167834295    0.960194521694016  0.0000
  Ge     Ge        0.326415986448501    0.789040910361803    0.984068851906208  0.0000
  Ge     Ge        0.165083103267298    0.316128396142937    0.969871707594343  0.0000
  Ge     Ge        0.654226649222253    0.701072325575944    0.048079273478011  0.0000
  Ge     Ge        0.859264570647603    0.374598223382879    0.043369542568302  0.0000
  Si     Si        0.954387744073339    0.058925557583329    0.112416411936112  0.0000
  Si     Si        0.051853040194947    0.023495601276547    0.869245003718958  0.0000
  Si     Si        0.346120804298584    0.365515746079874    0.280930373521333  0.0000
  Si     Si        0.147502226495522    0.717910017819679    0.991965575723099  0.0000
  O1     O1        0.127953031590416    0.137704509988618    0.389626789458718  0.0000
  O1     O1        0.379788587578702    0.895289668152696    0.394647449092663  0.0000
  O1     O1        0.917609905857018    0.275100720458386    0.640792015529109  0.0000
  O1     O1        0.576060987769531    0.824351828844650    0.641590407291114  0.0000
  O1     O1        0.867860592102228    0.936907994244539    0.630205897297930  0.0000
  O1     O1        0.621175010467296    0.167264039137585    0.636931586188310  0.0000
  O1     O1        0.086369252764477    0.796030515886697    0.390445191660529  0.0000
  O3     O3        0.417402718550616    0.249328181516572    0.318915908916082  0.0000
  O1     O1        0.978233540034825    0.048065651481530    0.464458127322027  0.0000
  O1     O1        0.469977889514357    0.084628604895016    0.556415591734506  0.0000
  O3     O3        0.024217170264462    0.022499987110506    0.207948624991881  0.0000
  O1     O1        0.529932707811844    0.003449245036913    0.326890877500400  0.0000
  O3     O3        0.020116460942761    0.008932363481826    0.722674198779411  0.0000
  O1     O1        0.518313519913125    0.046196696606825    0.816940815578921  0.0000
  O1     O1        0.636216891452714    0.145502907372060    0.149104897818338  0.0000
  O3     O3        0.886395100537070    0.921968738527142    0.132587735000857  0.0000
  O1     O1        0.414486453473364    0.290338382041138    0.902828520013285  0.0000
  O2     O2        0.092840593769063    0.844741160712852    0.906742987849764  0.0000
  O1     O1        0.369949352038580    0.950847371293514    0.897144592458055  0.0000
  O3     O3        0.107724247764837    0.186521403199066    0.876248423581368  0.0000
  O1     O1        0.589833813427131    0.802793659737815    0.137764493065663  0.0000
  O3     O3        0.924421320535246    0.249657171698276    0.131254001582733  0.0000
  O1     O1        0.483129835822071    0.063815000248210    0.076725784450112  0.0000
  O2     O2        0.980303339539082    0.049465816335225    0.961318319144205  0.0000
  O1     O1        0.155669412758211    0.481884796150964    0.352052822692051  0.0000
  O3     O3        0.348713295898035    0.545899888218327    0.351623665308753  0.0000
  O1     O1        0.836771149411555    0.584875144726900    0.662195942797450  0.0000
  O1     O1        0.655290871200663    0.509752537425621    0.672630126580973  0.0000
  O3     O3        0.271916864242091    0.252714573310397    0.316348824856958  0.0000
  O1     O1        0.236066493014652    0.791523805055486    0.305631962957909  0.0000
  O1     O1        0.767675755164588    0.268665899828822    0.728221157654836  0.0000
  O1     O1        0.728065828412372    0.821892914775359    0.725899896028441  0.0000
  O1     O1        0.149852295416846    0.269782046569085    0.131547230552134  0.0000
  O1     O1        0.363128280533416    0.799898930128033    0.141642271938590  0.0000
  O1     O1        0.885147555319390    0.403796294727516    0.883967008587324  0.0000
  O1     O1        0.618803406069743    0.690621525257288    0.890872587634227  0.0000
  O1     O1        0.859486911969164    0.789073794279774    0.881631705618707  0.0000
  O1     O1        0.643175392839866    0.282482702663976    0.892086774739253  0.0000
  O3     O3        0.117211692455907    0.690225147126827    0.136928570721157  0.0000
  O3     O3        0.337883867431426    0.423223728977185    0.128477408505350  0.0000
  O1     O1        0.667641599524476    0.495589368572970    0.107298350141353  0.0000
  O1     O1        0.851261565834978    0.572492044625344    0.106534991014107  0.0000
  O1     O1        0.343382895123844    0.603699439193338    0.905281623402271  0.0000
  O3     O3        0.150698469971613    0.532988218358923    0.929704397613616  0.0000
  O1     O1        0.775073325741658    0.261648098557828    0.044258091025150  0.0000
  O1     O1        0.739239767064092    0.812672321651746    0.050012100080083  0.0000
  O1     O1        0.256952679560108    0.284879731499063    0.927805156362750  0.0000
  O3     O3        0.229647478191550    0.809082473534079    0.997638998442322  0.0000
