data_c00503.vasp
_audit_creation_method             Generated by GULP
_audit_author_name                 Salvador R. G. Balestra
_symmetry_space_group_name_H-M     'P 1             '
_symmetry_Int_Tables_number        1

loop_
_symmetry_equiv_pos_site_id
_symmetry_equiv_pos_as_xyz
_cell_length_a                       17.8288
_cell_length_b                        7.8144
_cell_length_c                       10.3781
_cell_angle_alpha                   90.2257
_cell_angle_beta                    89.6283
_cell_angle_gamma                   89.7804

loop_
_atom_site_label
_atom_site_type_symbol
_atom_site_fract_x
_atom_site_fract_y
_atom_site_fract_z
_atom_site_charge
  Ge     Ge        0.052090000000021    0.000000000000000    0.372269999999958  0.0000
  Ge     Ge        0.445853118726532    0.028525241511728    0.362499247612046  0.0000
  Ge     Ge        0.944767188833218    0.998001000082075    0.628209466645246  0.0000
  Ge     Ge        0.555116102986070    0.031263425406692    0.607644149901336  0.0000
  Ge     Ge        0.546583308475264    0.021691902450137    0.103771152250736  0.0000
  Ge     Ge        0.950488709181118    0.001724227690057    0.113232605201887  0.0000
  Ge     Ge        0.442215860544417    0.027101616871084    0.853117940154279  0.0000
  Ge     Ge        0.167267438973187    0.287705246134383    0.291355433591148  0.0000
  Ge     Ge        0.324998288239765    0.750314202690034    0.286015395864547  0.0000
  Ge     Ge        0.673413944097671    0.744843974264044    0.726793622376658  0.0000
  Ge     Ge        0.655136219806542    0.340945759131349    0.715989453126154  0.0000
  Ge     Ge        0.346703611400487    0.343519405230574    0.289006509939516  0.0000
  Ge     Ge        0.648447494736197    0.336127802846010    0.032577313591370  0.0000
  Ge     Ge        0.850475054961797    0.686925644781478    0.039523910017949  0.0000
  Ge     Ge        0.345959235994642    0.340584355627991    0.974244962358082  0.0000
  Ge     Ge        0.143645301986564    0.692774883881473    0.982816342816220  0.0000
  Ge     Ge        0.322692649796381    0.750588633972640    0.972983671136922  0.0000
  Ge     Ge        0.165651931562625    0.281732150168938    0.979054398342998  0.0000
  Ge     Ge        0.671803506803701    0.744443248663324    0.040486327018421  0.0000
  Ge     Ge        0.826483355163202    0.275205691394291    0.036913873146340  0.0000
  Si     Si        0.051788655050228    0.004441115799614    0.868062188588948  0.0000
  Si     Si        0.831388502796204    0.289888794933719    0.730636565295148  0.0000
  Si     Si        0.849875550309397    0.689115913069954    0.735490716459706  0.0000
  Si     Si        0.149582273006941    0.690303814943556    0.288622909063909  0.0000
  O1     O1        0.117394461573837    0.159376428735323    0.393628612284839  0.0000
  O1     O1        0.372973411537876    0.886669575576327    0.383711772424944  0.0000
  O3     O3        0.881725461704126    0.165477876661572    0.643054763378813  0.0000
  O1     O1        0.627826274189508    0.893501701101272    0.636901126942545  0.0000
  O3     O3        0.904823915474934    0.798011838745227    0.645727336757311  0.0000
  O1     O1        0.592296815261565    0.231855192822200    0.624059687903739  0.0000
  O3     O3        0.094342510675636    0.799866970730604    0.379423013836960  0.0000
  O1     O1        0.409400500900722    0.230659812899193    0.380427722915369  0.0000
  O1     O1        0.976638532997347    0.009721288773413    0.472452696678351  0.0000
  O1     O1        0.524032341746298    0.999203788348312    0.452656088025518  0.0000
  O1     O1        0.020364889312406    0.035826185597692    0.218201071042302  0.0000
  O1     O1        0.472328537593866    0.996046150089069    0.203795856445979  0.0000
  O3     O3        0.024134215780458    0.014566374870617    0.721565871615641  0.0000
  O1     O1        0.475002472764725    0.006412802944425    0.697930460260846  0.0000
  O1     O1        0.581791077582399    0.225949270972406    0.116370121669869  0.0000
  O1     O1        0.916053265841501    0.797127671821269    0.125032765847551  0.0000
  O1     O1        0.410717018194042    0.231840103329601    0.883399757997548  0.0000
  O3     O3        0.076892783941928    0.811560921346630    0.904230724603119  0.0000
  O1     O1        0.368555941504897    0.889497949380265    0.874441717116355  0.0000
  O3     O3        0.120701012732475    0.134206492537390    0.883401141912701  0.0000
  O1     O1        0.619040191623775    0.880329406442093    0.132236762953442  0.0000
  O1     O1        0.875379015407924    0.139672472893666    0.132013334957573  0.0000
  O1     O1        0.516852991592176    0.980211890621306    0.949262711038810  0.0000
  O3     O3        0.982764911565397    0.054813957577982    0.960034590285415  0.0000
  O3     O3        0.159761988624653    0.500283597973236    0.342049258932410  0.0000
  O1     O1        0.340093611405320    0.547867472866950    0.344955265479451  0.0000
  O2     O2        0.842183354969476    0.490463155793187    0.691002909782498  0.0000
  O1     O1        0.657285915722710    0.546503739382748    0.661538929916067  0.0000
  O1     O1        0.261208555537495    0.240845309067905    0.293190690228259  0.0000
  O3     O3        0.229264233048416    0.788113860122727    0.283250760445637  0.0000
  O3     O3        0.743998172776493    0.247972187405474    0.712391428957571  0.0000
  O3     O3        0.769025426222949    0.779880493483773    0.730234698775196  0.0000
  O1     O1        0.135765563755919    0.266704673717119    0.135941165947718  0.0000
  O1     O1        0.354993574060395    0.764488160314295    0.128357121751274  0.0000
  O3     O3        0.855668157408734    0.264153341621470    0.877089908503989  0.0000
  O1     O1        0.642260055193889    0.752935554935374    0.882690947794546  0.0000
  O3     O3        0.880522058745860    0.694957919635448    0.879877387693701  0.0000
  O1     O1        0.623396600963558    0.338223562738027    0.872474306360277  0.0000
  O3     O3        0.117238650709236    0.681611354521741    0.143976682657364  0.0000
  O1     O1        0.376683171605588    0.346141723086808    0.130851794553655  0.0000
  O1     O1        0.658449200448468    0.537432961310877    0.092929050504522  0.0000
  O1     O1        0.841014181344427    0.482076376807464    0.090534138188734  0.0000
  O1     O1        0.336175288413157    0.544565142245289    0.917809716048227  0.0000
  O1     O1        0.149028726622226    0.487478654847854    0.925317228018976  0.0000
  O1     O1        0.733029451867071    0.229479484185007    0.042423258262976  0.0000
  O1     O1        0.765294843998191    0.790734935464578    0.049686442483201  0.0000
  O1     O1        0.260048530843662    0.240746878883091    0.971859250462683  0.0000
  O1     O1        0.228272363237585    0.793319954551290    0.970140325188813  0.0000
