data_c00516.vasp
_audit_creation_method             Generated by GULP
_audit_author_name                 Salvador R. G. Balestra
_symmetry_space_group_name_H-M     'P 1             '
_symmetry_Int_Tables_number        1

loop_
_symmetry_equiv_pos_site_id
_symmetry_equiv_pos_as_xyz
_cell_length_a                       17.5568
_cell_length_b                        7.9105
_cell_length_c                       10.3025
_cell_angle_alpha                   92.1649
_cell_angle_beta                    90.0363
_cell_angle_gamma                   88.8988

loop_
_atom_site_label
_atom_site_type_symbol
_atom_site_fract_x
_atom_site_fract_y
_atom_site_fract_z
_atom_site_charge
  Ge     Ge        0.052090000000021    0.000000000000000    0.372269999999958  0.0000
  Ge     Ge        0.433336677789887    0.987415444307197    0.370659987476961  0.0000
  Ge     Ge        0.945386389464859    0.936389501701177    0.619091177169230  0.0000
  Ge     Ge        0.540482192134341    0.980660915311625    0.620069799054426  0.0000
  Ge     Ge        0.548707507501348    0.997094658567581    0.129140879195661  0.0000
  Ge     Ge        0.940018189523577    0.949124866467238    0.123791056822810  0.0000
  Ge     Ge        0.438421866769301    0.954510323652980    0.881356931658624  0.0000
  Ge     Ge        0.144834130812211    0.315042733336751    0.272452867274353  0.0000
  Ge     Ge        0.822994472680170    0.224981123620343    0.691222344589642  0.0000
  Ge     Ge        0.663050864306706    0.696795096044420    0.695131996634647  0.0000
  Ge     Ge        0.845467654314224    0.626487423005168    0.692414778084957  0.0000
  Ge     Ge        0.640880330497030    0.293822170747968    0.691212333682885  0.0000
  Ge     Ge        0.332727843805564    0.301543240306295    0.268966759475599  0.0000
  Ge     Ge        0.638692893409897    0.305937762780895    0.007543134213427  0.0000
  Ge     Ge        0.848945178813749    0.629670631369578    0.007030919864891  0.0000
  Ge     Ge        0.147326662511136    0.674901701982876    0.941707965406171  0.0000
  Ge     Ge        0.330641053935252    0.657820583327211    0.939368228244925  0.0000
  Ge     Ge        0.146744369343633    0.271108646139477    0.956979726256666  0.0000
  Ge     Ge        0.666268263555336    0.707214474070763    0.009603549023459  0.0000
  Ge     Ge        0.821217633198047    0.229866692922164    0.007274170601210  0.0000
  Si     Si        0.041886208657012    0.976627800508095    0.874973562287540  0.0000
  Si     Si        0.334612749173121    0.686490307279420    0.239534890513617  0.0000
  Si     Si        0.152476036064399    0.699134846939867    0.243687340707222  0.0000
  Si     Si        0.327847789967069    0.258506697430188    0.961105751495460  0.0000
  O1     O1        0.087322510341128    0.199778310052064    0.368239352299010  0.0000
  O3     O3        0.364645408105444    0.841882345220822    0.325543628674815  0.0000
  O1     O1        0.874465261398748    0.084618078931835    0.593888810863100  0.0000
  O1     O1        0.611165552982696    0.828090470268440    0.599332068893897  0.0000
  O1     O1        0.908076707834128    0.738618198458636    0.602333253037160  0.0000
  O1     O1        0.578819769979556    0.175943620646089    0.598403814844205  0.0000
  O3     O3        0.127078431004611    0.863741682389038    0.326405776508695  0.0000
  O1     O1        0.389209448373339    0.181889462495752    0.364941348827044  0.0000
  O1     O1        0.024806995207141    0.959821970513721    0.527578359153658  0.0000
  O1     O1        0.461353691204621    0.948874308344483    0.526906269261526  0.0000
  O1     O1        0.971786307362045    0.970478144788689    0.280946786997287  0.0000
  O1     O1        0.517181111055150    0.982126919109080    0.286547442293156  0.0000
  O3     O3        0.970357486156734    0.976166670453826    0.781375152292461  0.0000
  O1     O1        0.513499898310144    0.974958803969837    0.781079702856470  0.0000
  O1     O1        0.574463959685950    0.200234570904257    0.097670905366598  0.0000
  O1     O1        0.913315482796144    0.743604655228300    0.096974316876352  0.0000
  O3     O3        0.376597224700984    0.128646381346098    0.872092958517956  0.0000
  O3     O3        0.088952463643315    0.801417424556496    0.850753135942384  0.0000
  O1     O1        0.388422165916104    0.772728407119524    0.844803202025974  0.0000
  O3     O3        0.097793169512142    0.133224961992882    0.856072285862461  0.0000
  O1     O1        0.625253425984446    0.861403728988091    0.107933980175942  0.0000
  O1     O1        0.863863940844262    0.084374427685814    0.102985971800049  0.0000
  O1     O1        0.472521452463576    0.939348159578301    0.035999635929536  0.0000
  O3     O3        0.013771071366718    0.001750734931351    0.023425921478125  0.0000
  O3     O3        0.131068193591628    0.529048364971686    0.314199153992279  0.0000
  O3     O3        0.353340012997294    0.511596043586742    0.307389669633975  0.0000
  O1     O1        0.834660804939738    0.424581965628292    0.632146880907319  0.0000
  O1     O1        0.651358544011927    0.491973490214283    0.635106408915485  0.0000
  O1     O1        0.238822329381711    0.259415949822902    0.293608012585975  0.0000
  O2     O2        0.243120194290595    0.690175282090599    0.215177440251147  0.0000
  O1     O1        0.727292118778990    0.185633329048261    0.689998016729320  0.0000
  O1     O1        0.759038774641684    0.734935475193746    0.694068023337490  0.0000
  O1     O1        0.115667469990139    0.280993021736153    0.114886904268652  0.0000
  O3     O3        0.367814687160564    0.688161616887422    0.095350892373007  0.0000
  O1     O1        0.853370805195771    0.217264105168539    0.849878475572279  0.0000
  O1     O1        0.631536149376867    0.716818849650930    0.853625046818665  0.0000
  O1     O1        0.879294639417226    0.614319848787784    0.848433816673262  0.0000
  O1     O1        0.608665934278691    0.313235690048642    0.849104994416006  0.0000
  O3     O3        0.115030134856665    0.701019800972525    0.101448339493951  0.0000
  O3     O3        0.359318557409434    0.260466653864519    0.108432522969339  0.0000
  O1     O1        0.648722730208587    0.509632309462891    0.067141655782392  0.0000
  O1     O1        0.839081560697120    0.432688180056136    0.066972364977434  0.0000
  O3     O3        0.331629655591070    0.443609131071592    0.901288079297303  0.0000
  O1     O1        0.138884909190093    0.467142333763878    0.892595623117674  0.0000
  O1     O1        0.724893808898134    0.199084564983366    0.008864013552187  0.0000
  O1     O1        0.762558815066141    0.735915679291295    0.006606524442754  0.0000
  O3     O3        0.240579472640374    0.203003070639565    0.966263959097531  0.0000
  O1     O1        0.239478305438816    0.734664526282478    0.923271954000654  0.0000
