data_c00533.vasp
_audit_creation_method             Generated by GULP
_audit_author_name                 Salvador R. G. Balestra
_symmetry_space_group_name_H-M     'P 1             '
_symmetry_Int_Tables_number        1

loop_
_symmetry_equiv_pos_site_id
_symmetry_equiv_pos_as_xyz
_cell_length_a                       17.4930
_cell_length_b                        7.8138
_cell_length_c                       10.3950
_cell_angle_alpha                   90.0001
_cell_angle_beta                    90.0001
_cell_angle_gamma                   91.2416

loop_
_atom_site_label
_atom_site_type_symbol
_atom_site_fract_x
_atom_site_fract_y
_atom_site_fract_z
_atom_site_charge
  Ge     Ge        0.052090000000021    0.000000000000000    0.372269999999958  0.0000
  Ge     Ge        0.448766694995261    0.048740881415951    0.372269723300121  0.0000
  Ge     Ge        0.953048823590209    0.053438945844864    0.632060822222027  0.0000
  Ge     Ge        0.547809008771937    0.995301641939279    0.632059862208320  0.0000
  Ge     Ge        0.557342969611388    0.992769942591327    0.126307483074430  0.0000
  Ge     Ge        0.943515155607382    0.055968512935840    0.126307262842032  0.0000
  Ge     Ge        0.175379301753926    0.282734623371226    0.263412005966660  0.0000
  Ge     Ge        0.325475860912662    0.766006103841268    0.263408551867828  0.0000
  Ge     Ge        0.853115051738853    0.366644223997670    0.704657280741587  0.0000
  Ge     Ge        0.647743137403876    0.682098437061590    0.704660430334320  0.0000
  Ge     Ge        0.827176488943740    0.772344727033160    0.705661811094538  0.0000
  Ge     Ge        0.673682288455798    0.276396391317204    0.705659493870397  0.0000
  Ge     Ge        0.143816165551892    0.682685388477851    0.258973882758247  0.0000
  Ge     Ge        0.357039963418774    0.366054684387106    0.258977435451660  0.0000
  Ge     Ge        0.674046429794511    0.287762005723299    0.017133764589068  0.0000
  Ge     Ge        0.826812892525902    0.760975772084107    0.017134609188705  0.0000
  Ge     Ge        0.351862412495672    0.361507029751801    0.945919913985417  0.0000
  Ge     Ge        0.148993674295831    0.687220926357926    0.945914246050591  0.0000
  Ge     Ge        0.331685852166552    0.763939065108572    0.951366308587900  0.0000
  Ge     Ge        0.169169535076873    0.284789640001581    0.951371373778392  0.0000
  Si     Si        0.451210837826774    0.053964611217234    0.885063841967979  0.0000
  Si     Si        0.049645557150376    0.994763477347628    0.885064710151103  0.0000
  Si     Si        0.648213961030454    0.681841877425863    0.011822427154476  0.0000
  Si     Si        0.852644597735427    0.366897529304884    0.011821835592765  0.0000
  O1     O1        0.131386603474750    0.129228790370209    0.355030628444514  0.0000
  O1     O1        0.369468788384313    0.919516432376265    0.355023428370402  0.0000
  O1     O1        0.921233224945273    0.259258788414922    0.620929967442219  0.0000
  O1     O1        0.579627107122383    0.789483828322276    0.620928562922667  0.0000
  O1     O1        0.877676935345627    0.911533762772597    0.610102766462664  0.0000
  O1     O1        0.623179098001224    0.137211438413714    0.610100580590166  0.0000
  O1     O1        0.074216369185061    0.792194272650306    0.337613360182865  0.0000
  O1     O1        0.426639482632282    0.256549872070764    0.337621379658259  0.0000
  O1     O1        0.026379568912647    0.013149299231100    0.531926465141114  0.0000
  O1     O1        0.474476639001572    0.035582240165381    0.531925989122240  0.0000
  O1     O1        0.975872720263590    0.065317339574959    0.281801478169393  0.0000
  O1     O1        0.524985406256178    0.983428302689611    0.281801831977576  0.0000
  O3     O3        0.979775539355208    0.027291237139668    0.792198482762583  0.0000
  O3     O3        0.521082198084935    0.021448285821181    0.792197395647611  0.0000
  O1     O1        0.630545065605231    0.141987773761142    0.116570686610299  0.0000
  O1     O1        0.870311971127069    0.906752925518487    0.116572869130711  0.0000
  O3     O3        0.416023643524769    0.240165662243718    0.860774797853201  0.0000
  O3     O3        0.084829915403285    0.808560550238592    0.860773448079177  0.0000
  O3     O3        0.384349335619420    0.911348392050361    0.863388233754258  0.0000
  O3     O3        0.116509168068704    0.137374800193014    0.863392627806282  0.0000
  O3     O3        0.585794177291749    0.788528618278042    0.087788945360255  0.0000
  O3     O3        0.915066833166918    0.260209725588953    0.087781882976256  0.0000
  O3     O3        0.480367326327810    0.049900751345182    0.032599179422902  0.0000
  O3     O3        0.020489255370288    0.998825680983050    0.032599908022194  0.0000
  O1     O1        0.157487482143758    0.483923736357794    0.323662167653505  0.0000
  O1     O1        0.343368090293544    0.564818844356018    0.323661324388801  0.0000
  O1     O1        0.840665127482052    0.567542035463380    0.647256569255084  0.0000
  O1     O1        0.660194133782026    0.481201031993197    0.647259269109774  0.0000
  O1     O1        0.271872992247234    0.250837753792684    0.262953420550560  0.0000
  O1     O1        0.228982265532015    0.797905272688673    0.262951520130525  0.0000
  O1     O1        0.770195609600779    0.243616633932834    0.699414224650674  0.0000
  O1     O1        0.730663084348695    0.805124357836509    0.699421262322403  0.0000
  O1     O1        0.140235861237970    0.271859022900699    0.108854776139216  0.0000
  O1     O1        0.360617683319365    0.776871785885055    0.108850459932488  0.0000
  O3     O3        0.878689368806590    0.391725565655647    0.864898882837847  0.0000
  O3     O3        0.622164743604797    0.657020979939068    0.864900647565978  0.0000
  O1     O1        0.857885767593974    0.791731765284827    0.862821444654567  0.0000
  O1     O1        0.642975042331950    0.257006215180486    0.862819704509081  0.0000
  O1     O1        0.118524900658513    0.655580719899207    0.101042356397938  0.0000
  O1     O1        0.382334932567267    0.393147107459856    0.101046079473862  0.0000
  O3     O3        0.656180878351009    0.493529735625561    0.071697485283252  0.0000
  O3     O3        0.844678591699221    0.555208849317361    0.071699945583444  0.0000
  O1     O1        0.343886320390706    0.563511747102458    0.884780291239344  0.0000
  O1     O1        0.156968514956673    0.485213271470784    0.884778931920890  0.0000
  O3     O3        0.772197723083435    0.262433443631092    0.017669158542986  0.0000
  O3     O3        0.728661557698696    0.786303279786752    0.017665189667438  0.0000
  O1     O1        0.265732689562044    0.250643314704364    0.946820349278083  0.0000
  O1     O1        0.235122812270827    0.798086657281815    0.946808964752523  0.0000
