data_c00545.vasp
_audit_creation_method             Generated by GULP
_audit_author_name                 Salvador R. G. Balestra
_symmetry_space_group_name_H-M     'P 1             '
_symmetry_Int_Tables_number        1

loop_
_symmetry_equiv_pos_site_id
_symmetry_equiv_pos_as_xyz
_cell_length_a                       17.6269
_cell_length_b                        7.8474
_cell_length_c                       10.2872
_cell_angle_alpha                   87.0713
_cell_angle_beta                    89.9286
_cell_angle_gamma                   89.4395

loop_
_atom_site_label
_atom_site_type_symbol
_atom_site_fract_x
_atom_site_fract_y
_atom_site_fract_z
_atom_site_charge
  Ge     Ge        0.052090000000021    0.000000000000000    0.372269999999958  0.0000
  Ge     Ge        0.443905020978243    0.024869966310482    0.364221045436965  0.0000
  Ge     Ge        0.954932467675896    0.054474832720888    0.625869170067930  0.0000
  Ge     Ge        0.542358684308625    0.088047674540303    0.620672970539869  0.0000
  Ge     Ge        0.553875997414472    0.060909422660169    0.126552813236748  0.0000
  Ge     Ge        0.941775630712073    0.014459290361252    0.126195714897300  0.0000
  Ge     Ge        0.171455225725219    0.294447528385303    0.249792679469808  0.0000
  Ge     Ge        0.335366207300337    0.726725778409015    0.271104813650357  0.0000
  Ge     Ge        0.827932877172779    0.329411603677505    0.691978301366811  0.0000
  Ge     Ge        0.669224692582587    0.800625540507609    0.686703161054169  0.0000
  Ge     Ge        0.850189894585757    0.733818500765101    0.686444111207820  0.0000
  Ge     Ge        0.646339218580998    0.394329797607658    0.693034000141514  0.0000
  Ge     Ge        0.147531412350056    0.689947006488441    0.278034674855054  0.0000
  Ge     Ge        0.642872180410270    0.384550440200894    0.009925041127841  0.0000
  Ge     Ge        0.853206664050443    0.706006414489974    0.004444378864785  0.0000
  Ge     Ge        0.340575960341437    0.388538422381562    0.929668724533205  0.0000
  Ge     Ge        0.147160270664502    0.746419518933870    0.967308308078170  0.0000
  Ge     Ge        0.334815617315039    0.780985320003687    0.961307093814661  0.0000
  Ge     Ge        0.672789492410605    0.788666082941488    0.003925695743141  0.0000
  Ge     Ge        0.823969118354923    0.304707140082369    0.008455315351803  0.0000
  Si     Si        0.445018031473104    0.071333056426057    0.882815155248447  0.0000
  Si     Si        0.051445657258028    0.072827078293624    0.887523148491594  0.0000
  Si     Si        0.344146485496946    0.339643455822854    0.248082898546718  0.0000
  Si     Si        0.167059580978214    0.360987921826728    0.930465791892169  0.0000
  O1     O1        0.121483916517542    0.119163314267278    0.292420921344456  0.0000
  O1     O1        0.383465048061576    0.857498721457061    0.372331548797192  0.0000
  O1     O1        0.882160883985839    0.199178638256199    0.599856052250351  0.0000
  O1     O1        0.612945750575068    0.939820247526049    0.595912357624892  0.0000
  O1     O1        0.917960417504770    0.855211983494363    0.607385979497310  0.0000
  O1     O1        0.582271367145927    0.285768703405647    0.603821799195683  0.0000
  O1     O1        0.089854506392074    0.798076988375586    0.381241359770293  0.0000
  O3     O3        0.410995192415417    0.206869810058373    0.275846311999985  0.0000
  O1     O1        0.030229115391062    0.075813424162000    0.521185145716916  0.0000
  O1     O1        0.466175913460892    0.070528372096865    0.520696608482325  0.0000
  O1     O1        0.969068956651050    0.014577516599467    0.285367495509772  0.0000
  O1     O1        0.527122738688755    0.995784053923721    0.281134032099812  0.0000
  O3     O3        0.985040788745565    0.087202079641632    0.783004370462395  0.0000
  O3     O3        0.511050182105624    0.051550781112137    0.779870905455093  0.0000
  O1     O1        0.579007977102422    0.271608506716735    0.104975895757982  0.0000
  O1     O1        0.920364196623928    0.810289335005071    0.088768394962818  0.0000
  O3     O3        0.411816738475376    0.265028912822000    0.871270051233477  0.0000
  O3     O3        0.094669621741513    0.893786601723680    0.873857484471585  0.0000
  O3     O3        0.374699596423155    0.945655632917517    0.866795922597304  0.0000
  O2     O2        0.110876398237763    0.228700026238583    0.866581878878764  0.0000
  O1     O1        0.632053863685391    0.938716530774905    0.094675465256771  0.0000
  O1     O1        0.865021303181605    0.147525309222390    0.105947810093483  0.0000
  O3     O3        0.478537722339050    0.022725187734997    0.024797448573222  0.0000
  O3     O3        0.016600694228445    0.089815773208296    0.030354668296168  0.0000
  O1     O1        0.143325025849860    0.476407118186222    0.323075324062174  0.0000
  O3     O3        0.354127306503965    0.514732302527636    0.320927512475101  0.0000
  O1     O1        0.839215825191613    0.535746720590963    0.628208291145027  0.0000
  O1     O1        0.657928281890327    0.598509340846634    0.631481421856098  0.0000
  O3     O3        0.265576986260344    0.248352436527719    0.288940303238818  0.0000
  O1     O1        0.239683273161686    0.759185836149252    0.282870375201599  0.0000
  O1     O1        0.732411538968257    0.287008531558401    0.690224258226100  0.0000
  O1     O1        0.764729384283934    0.843945327113682    0.678868823409007  0.0000
  O3     O3        0.164896241757496    0.355375678924601    0.086687673214136  0.0000
  O1     O1        0.369147686143808    0.778726860242163    0.118093517790221  0.0000
  O1     O1        0.856988583164811    0.304050135451493    0.851533962200498  0.0000
  O1     O1        0.640901154943065    0.804618238278459    0.846293916863169  0.0000
  O1     O1        0.880054592117419    0.701378493202631    0.844723785302397  0.0000
  O1     O1        0.613469317097594    0.399039245842885    0.850309885862438  0.0000
  O1     O1        0.111866814466911    0.733825535587665    0.122814065050591  0.0000
  O3     O3        0.338559338055999    0.402960945366666    0.096698683763851  0.0000
  O1     O1        0.653517487916172    0.584455743352159    0.065631550066950  0.0000
  O1     O1        0.842551098764965    0.502190690575858    0.067950153812188  0.0000
  O1     O1        0.353500012079499    0.597993696415915    0.881126151645288  0.0000
  O3     O3        0.144262026008037    0.555464511641012    0.888959167639012  0.0000
  O1     O1        0.728083435316855    0.276082133492033    0.009663723123786  0.0000
  O1     O1        0.768931175859962    0.817726524395908    0.006255989064234  0.0000
  O3     O3        0.251892560909040    0.319584383853290    0.882790916708331  0.0000
  O1     O1        0.239007465735280    0.813514069802155    0.975671324510433  0.0000
