data_c00586.vasp
_audit_creation_method             Generated by GULP
_audit_author_name                 Salvador R. G. Balestra
_symmetry_space_group_name_H-M     'P 1             '
_symmetry_Int_Tables_number        1

loop_
_symmetry_equiv_pos_site_id
_symmetry_equiv_pos_as_xyz
_cell_length_a                       17.5179
_cell_length_b                        7.8248
_cell_length_c                       10.3279
_cell_angle_alpha                   89.4137
_cell_angle_beta                    91.5430
_cell_angle_gamma                   88.2418

loop_
_atom_site_label
_atom_site_type_symbol
_atom_site_fract_x
_atom_site_fract_y
_atom_site_fract_z
_atom_site_charge
  Ge     Ge        0.052090000000021    0.000000000000000    0.372269999999958  0.0000
  Ge     Ge        0.444316736521396    0.952549842132150    0.361724922736955  0.0000
  Ge     Ge        0.944600443327623    0.947669220167143    0.620872403938793  0.0000
  Ge     Ge        0.543234116525367    0.010443548126708    0.622560067191745  0.0000
  Ge     Ge        0.555456764980247    0.998946728635249    0.125878340867861  0.0000
  Ge     Ge        0.442899930489645    0.947854795534214    0.877317729302562  0.0000
  Ge     Ge        0.144689570808818    0.315835911749605    0.262013693929608  0.0000
  Ge     Ge        0.354584772960040    0.631520735642406    0.249549916854947  0.0000
  Ge     Ge        0.822811707722793    0.231595640032102    0.698432262288609  0.0000
  Ge     Ge        0.667900944460672    0.724124701341926    0.704435700657178  0.0000
  Ge     Ge        0.848893989031367    0.635690717571812    0.703144365897727  0.0000
  Ge     Ge        0.643512686740689    0.318505489841177    0.697578321660182  0.0000
  Ge     Ge        0.172221045865479    0.713038754073687    0.264544153445295  0.0000
  Ge     Ge        0.854498618180029    0.626840230370686    0.016258457839235  0.0000
  Ge     Ge        0.316156674685886    0.237469992685622    0.941725861636985  0.0000
  Ge     Ge        0.158720380736014    0.718378659083026    0.950374940463185  0.0000
  Ge     Ge        0.340926850303702    0.639249298416884    0.935829839431799  0.0000
  Ge     Ge        0.135067250842408    0.315603448969518    0.946719910209860  0.0000
  Ge     Ge        0.670325806538427    0.702513732317991    0.015906473779193  0.0000
  Ge     Ge        0.826907946810152    0.225872359934074    0.014330498550031  0.0000
  Si     Si        0.942240071828838    0.937638396479396    0.128090685135505  0.0000
  Si     Si        0.036927493433747    0.008252782765423    0.882505452391455  0.0000
  Si     Si        0.323846217205967    0.238990513225384    0.249767721266851  0.0000
  Si     Si        0.647668673421210    0.306167467176102    0.006946726897823  0.0000
  O1     O1        0.081163503721375    0.204123974696442    0.349395412873987  0.0000
  O1     O1        0.421645184256777    0.743764728259682    0.334037346273317  0.0000
  O1     O1        0.871456145906027    0.097299266263766    0.598177969634453  0.0000
  O1     O1        0.618099077984961    0.865264362220439    0.604812279105797  0.0000
  O1     O1        0.910360590405759    0.745954664530469    0.608668967764185  0.0000
  O1     O1        0.575497928242922    0.214856285620214    0.609255639182641  0.0000
  O1     O1        0.129428571577957    0.865160981640270    0.357574687426489  0.0000
  O3     O3        0.366534995683015    0.088254164647200    0.330319936173781  0.0000
  O1     O1        0.020625386341061    0.981660488385429    0.527863282906467  0.0000
  O1     O1        0.466833333483403    0.972054831853074    0.524326859453859  0.0000
  O3     O3        0.974680691636190    0.949719797339876    0.273629198451984  0.0000
  O1     O1        0.524792536660448    0.008470605240713    0.282669428145974  0.0000
  O3     O3        0.968822063078743    0.972454594257186    0.784645383655599  0.0000
  O1     O1        0.517033362938056    0.987429340684026    0.781952186482863  0.0000
  O3     O3        0.586851266132852    0.199154223211001    0.083714218731066  0.0000
  O3     O3        0.919893548226399    0.743004282019017    0.104498312209436  0.0000
  O1     O1        0.368563643666720    0.096749740762403    0.855053880011460  0.0000
  O3     O3        0.106208898989099    0.871657089718256    0.863086994693186  0.0000
  O1     O1        0.403405905281018    0.752566636591281    0.847330165247543  0.0000
  O3     O3        0.067312674682627    0.198697926414701    0.864076980399957  0.0000
  O1     O1        0.625847987407053    0.842493500093152    0.116936375483094  0.0000
  O3     O3        0.868346198773768    0.063042651484014    0.108077790335951  0.0000
  O1     O1        0.475700571872635    0.950154993175443    0.036008419106617  0.0000
  O2     O2        0.008321166936780    0.994247648322382    0.030924034653371  0.0000
  O1     O1        0.155142837314024    0.513204525239672    0.327333682208606  0.0000
  O3     O3        0.344136790990649    0.424060322293850    0.307392048068668  0.0000
  O1     O1        0.833651502125951    0.438314757765016    0.642346532164443  0.0000
  O1     O1        0.654423029536050    0.521480534178277    0.643405234176124  0.0000
  O3     O3        0.233484967362645    0.211461330543941    0.254991149689819  0.0000
  O1     O1        0.268364752213000    0.740492018309725    0.261780236931536  0.0000
  O1     O1        0.726724543426838    0.196116361120389    0.692221300281673  0.0000
  O1     O1        0.764312629885805    0.755352357081422    0.709015989965999  0.0000
  O1     O1        0.110687985178808    0.336251669112744    0.105523493195288  0.0000
  O1     O1        0.378932618393651    0.622462309944133    0.091312594619997  0.0000
  O1     O1        0.855217004914682    0.215157382604962    0.857400124427844  0.0000
  O1     O1        0.635239886687436    0.736817890569288    0.860690815396848  0.0000
  O1     O1        0.883979389604170    0.612281712956396    0.859784507615148  0.0000
  O3     O3        0.618774993782045    0.332768968577370    0.859103674941656  0.0000
  O1     O1        0.133923226279489    0.725533425751451    0.109777938356763  0.0000
  O3     O3        0.349846305323248    0.233594838753443    0.101549120376502  0.0000
  O3     O3        0.656837483956416    0.493031365564083    0.067381250349994  0.0000
  O1     O1        0.849257072928505    0.422086602011701    0.076513165903949  0.0000
  O1     O1        0.326947493363086    0.439914108756972    0.877511153229031  0.0000
  O1     O1        0.141603894583405    0.518784129750709    0.886509374084027  0.0000
  O3     O3        0.728808589396341    0.202978492647511    0.013015280148077  0.0000
  O1     O1        0.766891814358280    0.730493180238397    0.018099994907011  0.0000
  O1     O1        0.220400636983187    0.201588198825718    0.937688072777985  0.0000
  O1     O1        0.254603100971323    0.751477992811766    0.941946431738359  0.0000
