data_c00552.vasp
_audit_creation_method             Generated by GULP
_audit_author_name                 Salvador R. G. Balestra
_symmetry_space_group_name_H-M     'P 1             '
_symmetry_Int_Tables_number        1

loop_
_symmetry_equiv_pos_site_id
_symmetry_equiv_pos_as_xyz
_cell_length_a                       17.5157
_cell_length_b                        7.8246
_cell_length_c                       10.3210
_cell_angle_alpha                   90.2036
_cell_angle_beta                    90.3038
_cell_angle_gamma                   91.6676

loop_
_atom_site_label
_atom_site_type_symbol
_atom_site_fract_x
_atom_site_fract_y
_atom_site_fract_z
_atom_site_charge
  Ge     Ge        0.052090000000021    0.000000000000000    0.372269999999958  0.0000
  Ge     Ge        0.449284203118608    0.056814616927733    0.340559407401168  0.0000
  Ge     Ge        0.949152418877811    0.042704666115762    0.629564553319344  0.0000
  Ge     Ge        0.551628989928978    0.991265553915265    0.595784024386349  0.0000
  Ge     Ge        0.545487516723179    0.978876342541399    0.078763391617856  0.0000
  Ge     Ge        0.943954030359375    0.043269317589782    0.123204130179021  0.0000
  Ge     Ge        0.173420304927947    0.285148418188753    0.262518140767083  0.0000
  Ge     Ge        0.325807627590068    0.772755527768957    0.256580411202467  0.0000
  Ge     Ge        0.848467618541663    0.356592023645318    0.696512096860262  0.0000
  Ge     Ge        0.642285507562440    0.672028721680557    0.707828084720915  0.0000
  Ge     Ge        0.824931764602529    0.757504928598244    0.703835189902586  0.0000
  Ge     Ge        0.144789353237155    0.685421261526729    0.254858264375486  0.0000
  Ge     Ge        0.354531743208568    0.369918658219313    0.261656088607922  0.0000
  Ge     Ge        0.673729340563336    0.265845091421770    0.010963260029810  0.0000
  Ge     Ge        0.826440331397821    0.744660735414307    0.016774934734596  0.0000
  Ge     Ge        0.351902505112335    0.350918946192023    0.948254648690127  0.0000
  Ge     Ge        0.144697933188630    0.673750575378486    0.940091788820105  0.0000
  Ge     Ge        0.327639645104174    0.755851476878048    0.942084508060062  0.0000
  Ge     Ge        0.167632470126365    0.273860828564174    0.949400224659310  0.0000
  Ge     Ge        0.643471917489997    0.663876270554172    0.021313155497867  0.0000
  Si     Si        0.442605898112273    0.042464868653951    0.830752824381851  0.0000
  Si     Si        0.048474669031880    0.982884414931749    0.881083484736258  0.0000
  Si     Si        0.671300605095085    0.278226750040552    0.701896916047132  0.0000
  Si     Si        0.850613609609267    0.348635460705461    0.006597857738059  0.0000
  O1     O1        0.129337964789268    0.137186184444035    0.359750672718146  0.0000
  O1     O1        0.373344826632726    0.913970193119310    0.356384723078790  0.0000
  O1     O1        0.914583174044697    0.244966253621799    0.613480585581646  0.0000
  O1     O1        0.578336944114744    0.785148209012474    0.618152694258348  0.0000
  O1     O1        0.873156375142051    0.901744307856091    0.608759687439012  0.0000
  O3     O3        0.626879596860767    0.134352654125604    0.619161823264367  0.0000
  O1     O1        0.076443268572065    0.794867305014268    0.335067940344955  0.0000
  O1     O1        0.418017478202209    0.261399564636870    0.355829028615660  0.0000
  O1     O1        0.023677035113926    0.004347130731327    0.531825503343339  0.0000
  O1     O1        0.524982781665359    0.012094220219063    0.435910398825325  0.0000
  O1     O1        0.976118646917837    0.061918050767814    0.279814815060623  0.0000
  O1     O1        0.475388520579914    0.035264169842008    0.179223431610035  0.0000
  O3     O3        0.977803967099019    0.021742824067747    0.790512779590175  0.0000
  O3     O3        0.471086505755083    0.040396646433182    0.683070222487241  0.0000
  O1     O1        0.625902018292963    0.111649117231345    0.093648555723423  0.0000
  O1     O1        0.873670279887070    0.886771302134525    0.117082278749154  0.0000
  O3     O3        0.417109246631184    0.233227586132241    0.864005828705395  0.0000
  O3     O3        0.080390072016578    0.794576144871104    0.854660423506409  0.0000
  O3     O3        0.371936554403286    0.908948555274466    0.846820052911630  0.0000
  O3     O3        0.117554426505244    0.121006035589470    0.860413101808969  0.0000
  O1     O1        0.577676684411139    0.776564268323444    0.106411712094310  0.0000
  O3     O3        0.914400853701117    0.244570495890864    0.080480588560577  0.0000
  O3     O3        0.513698088270911    0.988799569887744    0.919195013323350  0.0000
  O3     O3        0.021527721899561    0.988447028911433    0.030494057867364  0.0000
  O1     O1        0.159272352216993    0.488469797663130    0.321491733085284  0.0000
  O1     O1        0.340868140912843    0.570728113219380    0.317997779341191  0.0000
  O1     O1        0.841766575028014    0.557968004256179    0.639033080737182  0.0000
  O3     O3        0.654939845214269    0.467276188646300    0.647540617600274  0.0000
  O1     O1        0.269549232403409    0.252728548419826    0.257920456351965  0.0000
  O1     O1        0.229423462641836    0.804709020314424    0.254912022576762  0.0000
  O3     O3        0.761176780354970    0.245753787152389    0.692298070820196  0.0000
  O1     O1        0.728379238942088    0.783520813314825    0.704236421731239  0.0000
  O1     O1        0.137437025137831    0.265804689567638    0.107355745840834  0.0000
  O1     O1        0.359459129182953    0.779550014826225    0.099318747111573  0.0000
  O3     O3        0.874492010737162    0.375623297584635    0.858246351304313  0.0000
  O1     O1        0.611077638160931    0.656912168087601    0.863183296993243  0.0000
  O1     O1        0.857705465507401    0.774617654216037    0.861349597491184  0.0000
  O3     O3        0.644321824890985    0.268151705912472    0.850365977644784  0.0000
  O1     O1        0.116633463289707    0.648422454038669    0.097907481587542  0.0000
  O1     O1        0.385078737921703    0.380092225836047    0.103369687584882  0.0000
  O1     O1        0.652951276962621    0.461411422125580    0.077913656656365  0.0000
  O3     O3        0.840463875527564    0.535304079594753    0.067962080741572  0.0000
  O1     O1        0.343899988541053    0.552773392992286    0.885089751171961  0.0000
  O1     O1        0.152256895996799    0.471177852018650    0.880113015995586  0.0000
  O3     O3        0.771223062383796    0.238459545510358    0.015427354980248  0.0000
  O1     O1        0.730092892287776    0.773865196850414    0.022277616068805  0.0000
  O1     O1        0.264504961610651    0.244966213689901    0.947257939815345  0.0000
  O1     O1        0.231174669858134    0.783528393771384    0.939419382819116  0.0000
