data_c00509.vasp
_audit_creation_method             Generated by GULP
_audit_author_name                 Salvador R. G. Balestra
_symmetry_space_group_name_H-M     'P 1             '
_symmetry_Int_Tables_number        1

loop_
_symmetry_equiv_pos_site_id
_symmetry_equiv_pos_as_xyz
_cell_length_a                       17.6368
_cell_length_b                        7.8145
_cell_length_c                       10.2805
_cell_angle_alpha                   90.6648
_cell_angle_beta                    91.2618
_cell_angle_gamma                   88.7579

loop_
_atom_site_label
_atom_site_type_symbol
_atom_site_fract_x
_atom_site_fract_y
_atom_site_fract_z
_atom_site_charge
  Ge     Ge        0.052090000000021    0.000000000000000    0.372269999999958  0.0000
  Ge     Ge        0.438113668081163    0.953167001980779    0.392597163055374  0.0000
  Ge     Ge        0.943316842118525    0.947187624463789    0.620443228573587  0.0000
  Ge     Ge        0.541868484169064    0.997626657387915    0.648135488978631  0.0000
  Ge     Ge        0.550501637274807    0.998352356786294    0.156786729957826  0.0000
  Ge     Ge        0.948779888511658    0.938654482683189    0.112242999442161  0.0000
  Ge     Ge        0.442430564071216    0.930148936313476    0.904191896884194  0.0000
  Ge     Ge        0.149166757532851    0.311622709080446    0.298062258773021  0.0000
  Ge     Ge        0.820337400716547    0.231559319543506    0.723915437648142  0.0000
  Ge     Ge        0.668218865693158    0.717908065256355    0.726132478715738  0.0000
  Ge     Ge        0.848437060238043    0.634073493900556    0.730400014577683  0.0000
  Ge     Ge        0.640239849201047    0.313279560577861    0.720074745186729  0.0000
  Ge     Ge        0.169337077144138    0.712066504726352    0.285133179439761  0.0000
  Ge     Ge        0.642328190597226    0.308565119331290    0.036699492617737  0.0000
  Ge     Ge        0.850090785171808    0.623783766757994    0.046811339010270  0.0000
  Ge     Ge        0.318871503627882    0.218383812684341    0.978094018304893  0.0000
  Ge     Ge        0.159304483998197    0.688745995713025    0.970608707097835  0.0000
  Ge     Ge        0.341574571185286    0.621677693847536    0.961142815984356  0.0000
  Ge     Ge        0.671119869590723    0.714459158524331    0.041825932088682  0.0000
  Ge     Ge        0.822151458745053    0.222285488316447    0.039562618450040  0.0000
  Si     Si        0.047995260818987    0.985754187898186    0.866504018243539  0.0000
  Si     Si        0.346550539368823    0.641743899682265    0.268816534126962  0.0000
  Si     Si        0.325649234073287    0.246232699246006    0.284290750501227  0.0000
  Si     Si        0.141000256888269    0.289970717282093    0.988494999409378  0.0000
  O1     O1        0.088399071693764    0.201131854073972    0.391034534859309  0.0000
  O3     O3        0.404796771114462    0.751334820869617    0.355061174499149  0.0000
  O1     O1        0.867491103947824    0.085445088668138    0.628410044441543  0.0000
  O1     O1        0.617251444886577    0.856424409199621    0.629522703087796  0.0000
  O1     O1        0.915777407662914    0.742925578127803    0.648719548893820  0.0000
  O1     O1        0.574607870371159    0.200971754270964    0.629685609149311  0.0000
  O1     O1        0.127664500780587    0.857733786170940    0.386296133909417  0.0000
  O3     O3        0.372990698883611    0.120856074653547    0.377892593365413  0.0000
  O1     O1        0.976831869766712    0.956511177046744    0.464201567009969  0.0000
  O1     O1        0.464207032873328    0.950445788824939    0.554924311651021  0.0000
  O1     O1        0.023269053917061    0.983767957667613    0.210646604922340  0.0000
  O1     O1        0.520305011790453    0.993075140477224    0.314786841776706  0.0000
  O3     O3        0.019882588537319    0.007410442272781    0.718290084146977  0.0000
  O1     O1        0.515002886522117    0.980431566767606    0.808951131877062  0.0000
  O1     O1        0.576036849441804    0.203582514240119    0.122207005978249  0.0000
  O1     O1        0.915848032108752    0.735587867799252    0.135711812700643  0.0000
  O1     O1        0.364465822341766    0.068219422270551    0.888447402835080  0.0000
  O3     O3        0.109590959386588    0.831168036681171    0.872784943882621  0.0000
  O1     O1        0.405980373115830    0.730062430514752    0.874266255856446  0.0000
  O2     O2        0.080726170101492    0.167770889086202    0.915964999613250  0.0000
  O1     O1        0.627101993895342    0.861589884653909    0.139691554410399  0.0000
  O1     O1        0.873615238468284    0.080098962761541    0.131721951217647  0.0000
  O1     O1        0.474306762197873    0.937259143970722    0.063224770207573  0.0000
  O3     O3        0.975551680442697    0.941914237051136    0.949985886836199  0.0000
  O1     O1        0.153171755932106    0.516208570668602    0.352969089413740  0.0000
  O2     O2        0.336918951460343    0.447889965721449    0.321930093979163  0.0000
  O1     O1        0.834267247194805    0.434072289864089    0.665071113797157  0.0000
  O1     O1        0.653458080959608    0.514127541024374    0.664066189601066  0.0000
  O3     O3        0.237266316118400    0.208529195818742    0.297373911812266  0.0000
  O3     O3        0.265696265422108    0.740667514194063    0.272933057379038  0.0000
  O1     O1        0.724631119080124    0.197063391537776    0.720687619551954  0.0000
  O1     O1        0.764132596476309    0.751411946151148    0.726086920560970  0.0000
  O3     O3        0.117491087628226    0.318986548468473    0.136767549241436  0.0000
  O3     O3        0.373964856242560    0.627614949389191    0.122564330264210  0.0000
  O1     O1        0.852840418474248    0.211898008916169    0.881821551108993  0.0000
  O1     O1        0.637067871789939    0.732581461067111    0.884025131713096  0.0000
  O1     O1        0.877744713888130    0.601734159341998    0.887844687598847  0.0000
  O1     O1        0.611107855995130    0.329898625968039    0.878438898686778  0.0000
  O1     O1        0.132473947993425    0.721387352911817    0.128350222882378  0.0000
  O3     O3        0.352995625038799    0.211056476166840    0.138144955743002  0.0000
  O1     O1        0.656460628265006    0.510436554223926    0.097685725087541  0.0000
  O1     O1        0.836545364357557    0.424466541450556    0.105439098217272  0.0000
  O1     O1        0.336638089298376    0.414183232800612    0.911677188750505  0.0000
  O3     O3        0.143716530996332    0.476002591933812    0.923959013109066  0.0000
  O1     O1        0.726283160485230    0.190129094122676    0.039916871850902  0.0000
  O1     O1        0.766902872053716    0.744548285113647    0.042936533649225  0.0000
  O3     O3        0.222130688206585    0.192745938410301    0.981470928869664  0.0000
  O1     O1        0.253937419585556    0.721900792175156    0.953522439817503  0.0000
