data_c00557.vasp
_audit_creation_method             Generated by GULP
_audit_author_name                 Salvador R. G. Balestra
_symmetry_space_group_name_H-M     'P 1             '
_symmetry_Int_Tables_number        1

loop_
_symmetry_equiv_pos_site_id
_symmetry_equiv_pos_as_xyz
_cell_length_a                       17.7229
_cell_length_b                        7.8195
_cell_length_c                       10.0721
_cell_angle_alpha                   92.4707
_cell_angle_beta                    90.4607
_cell_angle_gamma                   88.8051

loop_
_atom_site_label
_atom_site_type_symbol
_atom_site_fract_x
_atom_site_fract_y
_atom_site_fract_z
_atom_site_charge
  Ge     Ge        0.052090000000021    0.000000000000000    0.372269999999958  0.0000
  Ge     Ge        0.449189938822985    0.965618952375243    0.375885479689510  0.0000
  Ge     Ge        0.943071245655172    0.912945593357690    0.612069432154132  0.0000
  Ge     Ge        0.548936807889773    0.985670242158897    0.638952278955037  0.0000
  Ge     Ge        0.541929523303128    0.010947271942698    0.100549680951749  0.0000
  Ge     Ge        0.952162915418375    0.947258400748704    0.109201842191097  0.0000
  Ge     Ge        0.146888782415346    0.310195917392443    0.298366410505378  0.0000
  Ge     Ge        0.354174269755816    0.644464452749085    0.291525683672126  0.0000
  Ge     Ge        0.819410433649698    0.203905956276033    0.725281586143057  0.0000
  Ge     Ge        0.664191499475235    0.681550773921540    0.726079070904946  0.0000
  Ge     Ge        0.847593091029710    0.607723740093097    0.719523732589230  0.0000
  Ge     Ge        0.173676027375925    0.713374389712432    0.294693384431032  0.0000
  Ge     Ge        0.325485254923991    0.238882694622028    0.293442907600784  0.0000
  Ge     Ge        0.651762931846456    0.321888761265812    0.058399791356226  0.0000
  Ge     Ge        0.846690686336573    0.637907802342119    0.042793159343732  0.0000
  Ge     Ge        0.164697435034598    0.688460248786973    0.973621699811827  0.0000
  Ge     Ge        0.347602868658413    0.622949195626815    0.972618369472961  0.0000
  Ge     Ge        0.146396419924400    0.286091263876179    0.974280573100037  0.0000
  Ge     Ge        0.667121950592519    0.720325336886938    0.046186045915287  0.0000
  Ge     Ge        0.822527214296368    0.229531915519672    0.056973585700233  0.0000
  Si     Si        0.433349799783096    0.929989799672248    0.855940339071720  0.0000
  Si     Si        0.052291930848735    0.973638795307334    0.854948738009623  0.0000
  Si     Si        0.650633510285552    0.294753850076709    0.736680889219534  0.0000
  Si     Si        0.325021977167244    0.225529703555028    0.976642855823398  0.0000
  O1     O1        0.084391721278462    0.204858417495568    0.393897890731470  0.0000
  O1     O1        0.417715544700830    0.760175718319872    0.385979129051345  0.0000
  O1     O1        0.865118526946528    0.039686935129339    0.642584437541307  0.0000
  O1     O1        0.614362831711440    0.824070272412617    0.631825941438511  0.0000
  O1     O1        0.913597940800368    0.708240601024026    0.627595343733737  0.0000
  O3     O3        0.578922563063580    0.176877418681474    0.714147676190256  0.0000
  O1     O1        0.125626559104539    0.857771803916484    0.395827999151803  0.0000
  O1     O1        0.373593846917596    0.106565672770425    0.394452150367635  0.0000
  O1     O1        0.972293662378411    0.950847464263054    0.453638188481838  0.0000
  O1     O1        0.523970831623472    0.015043099911249    0.475099907740081  0.0000
  O1     O1        0.029502306260285    0.980547863161543    0.204057346177297  0.0000
  O1     O1        0.472616856601667    0.993849676227586    0.211721836172051  0.0000
  O3     O3        0.023865386046177    0.962085123706881    0.703191534119404  0.0000
  O3     O3        0.461352937688175    0.941432059737816    0.705646853155976  0.0000
  O1     O1        0.572621470516528    0.220076943900158    0.099094200811249  0.0000
  O1     O1        0.911571865125646    0.753259238609999    0.132796626400321  0.0000
  O2     O2        0.368772002289644    0.072732102471620    0.894181222131196  0.0000
  O3     O3        0.118891765353382    0.836141808660845    0.878253520256847  0.0000
  O3     O3        0.403645735484961    0.739760418551243    0.871983246440598  0.0000
  O3     O3        0.083237148593775    0.163290297063194    0.884695446871759  0.0000
  O1     O1        0.617870459435572    0.878631186583207    0.133030165810532  0.0000
  O1     O1        0.884200848723275    0.104368678103878    0.141203822136757  0.0000
  O3     O3        0.508847640599678    0.961342678242617    0.941802303226590  0.0000
  O3     O3        0.979258366157369    0.942367619878733    0.942996201785441  0.0000
  O1     O1        0.160888248081044    0.513729804554243    0.357748079136315  0.0000
  O1     O1        0.341234207620965    0.446936748124262    0.350475979422423  0.0000
  O1     O1        0.843440680774232    0.397467654106222    0.665402207579897  0.0000
  O3     O3        0.643242061733171    0.474177613912930    0.665450692728165  0.0000
  O1     O1        0.231481989965770    0.196697333817301    0.297214964723157  0.0000
  O1     O1        0.267966240238981    0.753004017447536    0.288879363533200  0.0000
  O3     O3        0.723425787075935    0.181309825800307    0.691545228638307  0.0000
  O1     O1        0.759680497088967    0.705828054049412    0.711298168209122  0.0000
  O1     O1        0.116654342866406    0.312175374160732    0.135049035381807  0.0000
  O1     O1        0.385422690207883    0.630548371594796    0.129209246080086  0.0000
  O1     O1        0.840329740176734    0.190900096182600    0.890638699239620  0.0000
  O1     O1        0.634492265307727    0.728317558325727    0.884573482359605  0.0000
  O1     O1        0.877187847666352    0.611618399002703    0.881735747843786  0.0000
  O3     O3        0.666393438965201    0.357193687905639    0.889788121709948  0.0000
  O1     O1        0.136069393488649    0.710080882552127    0.135586081381407  0.0000
  O3     O3        0.354009983802581    0.228884945157440    0.127751026224465  0.0000
  O1     O1        0.650397209982687    0.529123875458092    0.120065929427986  0.0000
  O1     O1        0.834441908855458    0.442141003004812    0.105212478069593  0.0000
  O3     O3        0.341037769582350    0.409748592232149    0.916963298834146  0.0000
  O1     O1        0.147574241633346    0.485063502897906    0.909970804804966  0.0000
  O1     O1        0.729737533587018    0.198154218398735    0.096614045365006  0.0000
  O1     O1        0.762407770155956    0.753418961867435    0.043986912943359  0.0000
  O3     O3        0.236030955935317    0.192102805943420    0.970764427456511  0.0000
  O1     O1        0.259972913943317    0.717801094078144    0.972758661063677  0.0000
