data_c00592.vasp
_audit_creation_method             Generated by GULP
_audit_author_name                 Salvador R. G. Balestra
_symmetry_space_group_name_H-M     'P 1             '
_symmetry_Int_Tables_number        1

loop_
_symmetry_equiv_pos_site_id
_symmetry_equiv_pos_as_xyz
_cell_length_a                       17.6307
_cell_length_b                        7.7981
_cell_length_c                       10.3107
_cell_angle_alpha                   91.0249
_cell_angle_beta                    90.4992
_cell_angle_gamma                   91.1010

loop_
_atom_site_label
_atom_site_type_symbol
_atom_site_fract_x
_atom_site_fract_y
_atom_site_fract_z
_atom_site_charge
  Ge     Ge        0.052090000000021    0.000000000000000    0.372269999999958  0.0000
  Ge     Ge        0.445188013910718    0.055838936178210    0.340815697316215  0.0000
  Ge     Ge        0.948145561237382    0.038808993601619    0.628224113109403  0.0000
  Ge     Ge        0.547318128065462    0.993564039231369    0.595755455512560  0.0000
  Ge     Ge        0.546489665295006    0.991121011818630    0.085624638410718  0.0000
  Ge     Ge        0.436724191671641    0.036675551213688    0.836912183442926  0.0000
  Ge     Ge        0.167592328845097    0.294973615386584    0.274296301849347  0.0000
  Ge     Ge        0.321745714764439    0.773273896536403    0.259155563518313  0.0000
  Ge     Ge        0.852195487971077    0.358016262659739    0.703381880936241  0.0000
  Ge     Ge        0.642830704908750    0.681216643824914    0.710424917728723  0.0000
  Ge     Ge        0.822742385908062    0.762034875403255    0.706062615872523  0.0000
  Ge     Ge        0.671746205384988    0.277812879545473    0.706095770373103  0.0000
  Ge     Ge        0.347359069617573    0.368271664451618    0.271089645805275  0.0000
  Ge     Ge        0.672615053043423    0.275469635838948    0.020170644492643  0.0000
  Ge     Ge        0.827613564606903    0.763541032829305    0.022436028087140  0.0000
  Ge     Ge        0.141111882746022    0.668443639822133    0.946042008068116  0.0000
  Ge     Ge        0.320538370891600    0.742542409966384    0.944245012916181  0.0000
  Ge     Ge        0.161130516150662    0.267293556760115    0.961993802305401  0.0000
  Ge     Ge        0.648125380936607    0.678141884228736    0.027996305644505  0.0000
  Ge     Ge        0.853280420720032    0.356743556903408    0.017789264322190  0.0000
  Si     Si        0.943776307477903    0.050751215542700    0.132150025865216  0.0000
  Si     Si        0.042628971422016    0.978225601060233    0.888487124769538  0.0000
  Si     Si        0.146472179482744    0.689506649616701    0.256888647091297  0.0000
  Si     Si        0.339428541420896    0.341030456719469    0.962242539309283  0.0000
  O1     O1        0.119771603965363    0.158984590063005    0.374449566016075  0.0000
  O1     O1        0.367116863691720    0.920963259209438    0.356259034522488  0.0000
  O1     O1        0.916653875478633    0.244329223624607    0.613927184966887  0.0000
  O1     O1        0.572595593837995    0.788281152961696    0.631452479872739  0.0000
  O1     O1        0.871323838101410    0.901479361638664    0.610432509319315  0.0000
  O1     O1        0.624462060051881    0.127874699809756    0.612094541916218  0.0000
  O3     O3        0.083412234416235    0.799272765330170    0.328389521236793  0.0000
  O1     O1        0.414691365960977    0.262857404883166    0.358012510630817  0.0000
  O1     O1        0.020465257743974    0.987499935068810    0.529038529957945  0.0000
  O1     O1        0.519912012086292    0.003147964603204    0.434456562977622  0.0000
  O3     O3        0.974264383579766    0.049918250240794    0.278451294577160  0.0000
  O1     O1        0.471154540859056    0.032314046700866    0.180110263863377  0.0000
  O3     O3        0.977083711818171    0.018457263046820    0.789502433988648  0.0000
  O1     O1        0.468538268124168    0.054888400978608    0.680392377701304  0.0000
  O1     O1        0.621023297539114    0.135085744593254    0.109919481652555  0.0000
  O3     O3        0.873528620130722    0.918245224599923    0.117076248307989  0.0000
  O3     O3        0.398370885658135    0.231605941597017    0.880491890460758  0.0000
  O3     O3        0.071450756246092    0.784319510782006    0.870787962252414  0.0000
  O1     O1        0.371232485966830    0.870938123239078    0.843281003539266  0.0000
  O3     O3        0.114479382623584    0.107493787277214    0.873702302578583  0.0000
  O1     O1        0.581884886247418    0.790248720343874    0.112282804026395  0.0000
  O3     O3        0.919409972452768    0.243504387280621    0.103847481282541  0.0000
  O1     O1        0.516316239452775    0.996347538031261    0.926034537221960  0.0000
  O2     O2        0.011697458043565    0.994953490362516    0.036112400148211  0.0000
  O3     O3        0.157999365079807    0.508111169789885    0.325040191336780  0.0000
  O1     O1        0.341264976759032    0.575472127875640    0.322237969373788  0.0000
  O1     O1        0.837382630992967    0.557264113098111    0.644873939553362  0.0000
  O1     O1        0.655538603611249    0.479356652549309    0.646396381900984  0.0000
  O1     O1        0.262681780651558    0.256977942278672    0.282508389514092  0.0000
  O3     O3        0.224475506139314    0.801460656340146    0.258381656633065  0.0000
  O1     O1        0.767431438306082    0.243351253557282    0.705705385959458  0.0000
  O1     O1        0.727007606591775    0.797638058627010    0.703526800178532  0.0000
  O1     O1        0.132890310149706    0.256816860660893    0.120437487034748  0.0000
  O1     O1        0.351306435306572    0.783744178365179    0.100395190615065  0.0000
  O1     O1        0.883493370426502    0.377994584758012    0.861610309080086  0.0000
  O1     O1        0.618575376109093    0.654112078462099    0.868953671564452  0.0000
  O1     O1        0.855433019659150    0.775346541526732    0.864075383345773  0.0000
  O1     O1        0.639541129442907    0.262934992775035    0.862567856371956  0.0000
  O3     O3        0.123389415885236    0.642942151889745    0.109677304702798  0.0000
  O3     O3        0.370793882300761    0.370291398734518    0.107588528698750  0.0000
  O1     O1        0.660804951987215    0.478290362648587    0.086859115661025  0.0000
  O1     O1        0.843646957000868    0.560503960662170    0.080163608357821  0.0000
  O3     O3        0.329302564482023    0.527117377842538    0.900959276350001  0.0000
  O1     O1        0.142283116475406    0.460496772265968    0.890579770021191  0.0000
  O1     O1        0.768564686616702    0.243122243186376    0.019369943528679  0.0000
  O1     O1        0.731889632438117    0.796126005413543    0.028838983153014  0.0000
  O3     O3        0.258620393912567    0.239936277123846    0.963514902944337  0.0000
  O1     O1        0.225226344584532    0.778422094948728    0.929257253161886  0.0000
