data_c00580.vasp
_audit_creation_method             Generated by GULP
_audit_author_name                 Salvador R. G. Balestra
_symmetry_space_group_name_H-M     'P 1             '
_symmetry_Int_Tables_number        1

loop_
_symmetry_equiv_pos_site_id
_symmetry_equiv_pos_as_xyz
_cell_length_a                       17.4834
_cell_length_b                        7.8437
_cell_length_c                       10.3220
_cell_angle_alpha                   89.8736
_cell_angle_beta                    91.3972
_cell_angle_gamma                   87.6800

loop_
_atom_site_label
_atom_site_type_symbol
_atom_site_fract_x
_atom_site_fract_y
_atom_site_fract_z
_atom_site_charge
  Ge     Ge        0.052090000000021    0.000000000000000    0.372269999999958  0.0000
  Ge     Ge        0.445062993333346    0.941898306567676    0.358475952245497  0.0000
  Ge     Ge        0.944227139319409    0.949075632655901    0.620660991996823  0.0000
  Ge     Ge        0.542777578656086    0.011101264775508    0.618221609620387  0.0000
  Ge     Ge        0.554184688798543    0.003006177419878    0.121640068573821  0.0000
  Ge     Ge        0.442524658674388    0.945666868274288    0.873102239432036  0.0000
  Ge     Ge        0.145315484539049    0.312266448530200    0.260357710194809  0.0000
  Ge     Ge        0.354504085844370    0.623930520716525    0.248608935838711  0.0000
  Ge     Ge        0.822515271447206    0.235835591881171    0.701146571824427  0.0000
  Ge     Ge        0.668439164064497    0.723666951179228    0.698774119486477  0.0000
  Ge     Ge        0.849649838506060    0.638130253213478    0.699179272309111  0.0000
  Ge     Ge        0.640305545949579    0.320736831828290    0.696021302925543  0.0000
  Ge     Ge        0.171389431684043    0.708599422810202    0.264355707949800  0.0000
  Ge     Ge        0.641532731445336    0.322467213718759    0.008571158523641  0.0000
  Ge     Ge        0.851034916235833    0.639337880322852    0.012490810058095  0.0000
  Ge     Ge        0.315758328887589    0.238080812243799    0.934987812859100  0.0000
  Ge     Ge        0.158045233360961    0.718241009394285    0.950681305377343  0.0000
  Ge     Ge        0.341532548058677    0.637691213671585    0.935460053761055  0.0000
  Ge     Ge        0.134102145247961    0.316937308480225    0.944087976154445  0.0000
  Ge     Ge        0.826714462446590    0.240133185898014    0.016029978076283  0.0000
  Si     Si        0.940635926899544    0.947771524232544    0.128783504985156  0.0000
  Si     Si        0.036294943629053    0.009998471493120    0.882593814030684  0.0000
  Si     Si        0.324516059999542    0.233339572560084    0.244249958771744  0.0000
  Si     Si        0.669181976798604    0.715886289978952    0.005376819841528  0.0000
  O1     O1        0.081944244119351    0.201829828797413    0.347501320452995  0.0000
  O1     O1        0.420508333236755    0.734142118809321    0.336742430641952  0.0000
  O1     O1        0.869361089854671    0.096300241055324    0.600679902224893  0.0000
  O1     O1        0.617781114386681    0.863932652035566    0.600945050142758  0.0000
  O1     O1        0.912206389278381    0.746508145921364    0.606524472755964  0.0000
  O1     O1        0.576234253161883    0.212268334164678    0.601767589952191  0.0000
  O1     O1        0.128786428772603    0.860725672613676    0.359475741650076  0.0000
  O3     O3        0.368862959642459    0.079840929695397    0.318551482366644  0.0000
  O1     O1        0.020046480392278    0.986971813048142    0.527972011643626  0.0000
  O1     O1        0.466068201230789    0.972310828831869    0.520534104954437  0.0000
  O3     O3        0.974515914660720    0.951289895156663    0.273836606238704  0.0000
  O1     O1        0.527450377049608    0.985248384390722    0.280091375452775  0.0000
  O3     O3        0.968447009388935    0.973425196312310    0.784661649105436  0.0000
  O1     O1        0.516689549210172    0.985926856683355    0.777629221123002  0.0000
  O1     O1        0.579695724958710    0.210131076786997    0.098209359866148  0.0000
  O3     O3        0.912921553515278    0.758004361083573    0.103672798594463  0.0000
  O1     O1        0.367845666429864    0.094799686812719    0.848269164062427  0.0000
  O3     O3        0.106664907426244    0.873848068276893    0.864055585174646  0.0000
  O1     O1        0.403581310356325    0.750412324533779    0.846350931100325  0.0000
  O3     O3        0.065746592781266    0.200101657515725    0.863726565088464  0.0000
  O3     O3        0.630955483208576    0.863646793319794    0.091178481783272  0.0000
  O3     O3        0.869740448518139    0.082571320471972    0.112859169996419  0.0000
  O1     O1        0.474389878827197    0.954571462946531    0.032195125935625  0.0000
  O2     O2        0.007754266399946    0.995545547337253    0.031072363990923  0.0000
  O1     O1        0.155240048815742    0.509416767403013    0.326431035316122  0.0000
  O3     O3        0.344929283035317    0.416724706648333    0.304734313036346  0.0000
  O1     O1        0.835453609280356    0.439005565199282    0.641532175941327  0.0000
  O1     O1        0.653343692795897    0.520971494013236    0.639934633303609  0.0000
  O3     O3        0.234237391244339    0.205586056223790    0.253231682163120  0.0000
  O1     O1        0.267751740673952    0.733198270471046    0.259910460163920  0.0000
  O1     O1        0.726196942352990    0.203864996565714    0.701455279962639  0.0000
  O1     O1        0.764175451000820    0.757515421732945    0.697866833061559  0.0000
  O1     O1        0.111457275426477    0.335666641558613    0.104155421602996  0.0000
  O1     O1        0.380265561979425    0.619708436760640    0.090319669443578  0.0000
  O1     O1        0.856433091096770    0.225139109599455    0.859406953887331  0.0000
  O3     O3        0.636931315841028    0.730135229220811    0.857880049795165  0.0000
  O1     O1        0.882937536995378    0.623534317681100    0.857451170464595  0.0000
  O1     O1        0.607324767084295    0.329101803679702    0.851914446064641  0.0000
  O1     O1        0.132583722586576    0.724534116522768    0.110107450618884  0.0000
  O3     O3        0.348703863938959    0.235734568313022    0.095145147610282  0.0000
  O3     O3        0.650416642839242    0.530707249560173    0.062484893342944  0.0000
  O1     O1        0.847844317571294    0.438409226832362    0.076145804946921  0.0000
  O1     O1        0.328058158605482    0.439940814494912    0.873528593565329  0.0000
  O1     O1        0.139833207622755    0.519998264124354    0.885503276179745  0.0000
  O1     O1        0.729810910648477    0.219181937847337    0.017158779665958  0.0000
  O3     O3        0.760190856191677    0.735722586364089    0.004748543200414  0.0000
  O1     O1        0.219947681300039    0.203842463695372    0.930332452268951  0.0000
  O1     O1        0.254329043011382    0.748466645500834    0.943303474479984  0.0000
