data_c00526.vasp
_audit_creation_method             Generated by GULP
_audit_author_name                 Salvador R. G. Balestra
_symmetry_space_group_name_H-M     'P 1             '
_symmetry_Int_Tables_number        1

loop_
_symmetry_equiv_pos_site_id
_symmetry_equiv_pos_as_xyz
_cell_length_a                       17.6191
_cell_length_b                        7.8309
_cell_length_c                       10.2082
_cell_angle_alpha                   90.2365
_cell_angle_beta                    89.7261
_cell_angle_gamma                   88.2477

loop_
_atom_site_label
_atom_site_type_symbol
_atom_site_fract_x
_atom_site_fract_y
_atom_site_fract_z
_atom_site_charge
  Ge     Ge        0.052090000000021    0.000000000000000    0.372269999999958  0.0000
  Ge     Ge        0.443087005072188    0.944073103365070    0.377302399013872  0.0000
  Ge     Ge        0.950241270699545    0.937804509720755    0.632695523898158  0.0000
  Ge     Ge        0.552166965099787    0.994300781775370    0.624369546846209  0.0000
  Ge     Ge        0.545227663929831    0.013148099609193    0.121905559393148  0.0000
  Ge     Ge        0.944081286871556    0.957469314813587    0.119042789488985  0.0000
  Ge     Ge        0.441991778394260    0.945694393778225    0.869837851172135  0.0000
  Ge     Ge        0.343824565006579    0.629744993106857    0.315407327473286  0.0000
  Ge     Ge        0.824438824505628    0.226294702675196    0.747144684072783  0.0000
  Ge     Ge        0.673870756782328    0.708368639766374    0.734359044679967  0.0000
  Ge     Ge        0.856635348451380    0.625803920294385    0.738260107645111  0.0000
  Ge     Ge        0.644528524528538    0.307658102632701    0.744602895511518  0.0000
  Ge     Ge        0.322830010009699    0.232585272266573    0.299818361179500  0.0000
  Ge     Ge        0.646486695339434    0.323610670466065    0.067059221921587  0.0000
  Ge     Ge        0.850689967729101    0.636798634444935    0.053047133091241  0.0000
  Ge     Ge        0.321195763531383    0.233804271239962    0.983125756771068  0.0000
  Ge     Ge        0.166386305870431    0.716687783569679    0.995013547854191  0.0000
  Ge     Ge        0.347356899960945    0.636600396081420    0.992530000358500  0.0000
  Ge     Ge        0.138939956525007    0.310552963699064    0.992295367830264  0.0000
  Ge     Ge        0.669340583280998    0.722703938724985    0.050124250057848  0.0000
  Si     Si        0.050082065989270    0.003975850713670    0.876683799611833  0.0000
  Si     Si        0.144398743133102    0.311184274230451    0.298642918310791  0.0000
  Si     Si        0.166824100372809    0.702315948016268    0.307407681963306  0.0000
  Si     Si        0.822591477542655    0.245864548839127    0.061453628091769  0.0000
  O3     O3        0.093136586052937    0.198279805151157    0.392513435626828  0.0000
  O1     O1        0.408047417204497    0.744493690340911    0.401564125326464  0.0000
  O1     O1        0.872052852326842    0.064573488532982    0.668669248237069  0.0000
  O1     O1        0.628962752646109    0.857325728049301    0.637043179014823  0.0000
  O1     O1        0.923255664264846    0.730799910971191    0.648178936579723  0.0000
  O1     O1        0.575848733896990    0.198572943064718    0.664422507374657  0.0000
  O3     O3        0.117871875178454    0.832361733920865    0.397206812768460  0.0000
  O1     O1        0.366680192345785    0.084763898973200    0.397232880075025  0.0000
  O1     O1        0.976647741063346    0.976172188900198    0.473336420829983  0.0000
  O1     O1        0.521827827669582    0.989816300582475    0.463430832639798  0.0000
  O1     O1        0.019949896824575    0.996457465060137    0.213832523204245  0.0000
  O1     O1        0.469113647314676    0.962974018337003    0.213990308899647  0.0000
  O3     O3        0.029144347507047    0.987582714300324    0.724565612821693  0.0000
  O1     O1        0.473426444930976    0.933989914069247    0.710544341172252  0.0000
  O1     O1        0.581199359419366    0.211993805772676    0.152736127683095  0.0000
  O1     O1        0.909149892796796    0.758126718907548    0.146536105371445  0.0000
  O1     O1        0.364986738655880    0.084163528266824    0.884423658628884  0.0000
  O3     O3        0.120263267944415    0.876313257380964    0.909875983578198  0.0000
  O1     O1        0.417011816487981    0.743236122500128    0.914444930836789  0.0000
  O3     O3        0.072264878707194    0.198323440965259    0.907047514226984  0.0000
  O1     O1        0.620398126926271    0.870162995419066    0.142133527235698  0.0000
  O3     O3        0.871295816308823    0.108890021463971    0.143578454031104  0.0000
  O1     O1        0.516965619308996    0.013636595645451    0.960321927883274  0.0000
  O3     O3        0.974905860699742    0.956898976812879    0.956770763178723  0.0000
  O2     O2        0.155121561042092    0.504527766464744    0.351903804289060  0.0000
  O1     O1        0.340611398701137    0.426717099922962    0.371934194787582  0.0000
  O1     O1        0.845156473359331    0.421870277509161    0.681176460429677  0.0000
  O1     O1        0.656304782439888    0.505725146781155    0.677755667870693  0.0000
  O3     O3        0.225832264349833    0.213499578043229    0.287001196164700  0.0000
  O3     O3        0.255590322988003    0.736869183004984    0.319571112228334  0.0000
  O1     O1        0.729207101658412    0.191982038151141    0.735307991400564  0.0000
  O1     O1        0.769915894275111    0.734313703997176    0.733898455214637  0.0000
  O3     O3        0.108925490984369    0.322180772257454    0.154345650846468  0.0000
  O1     O1        0.371133235618533    0.614315510744318    0.154174593926253  0.0000
  O3     O3        0.849473258166301    0.238011714363384    0.910684412280545  0.0000
  O1     O1        0.637527981823149    0.732679540167660    0.890575343479962  0.0000
  O1     O1        0.887164461128425    0.619327297267660    0.897711371788386  0.0000
  O1     O1        0.619938186399215    0.337759248771133    0.905470020982122  0.0000
  O3     O3        0.139547625636376    0.727485213855624    0.158405380467959  0.0000
  O1     O1        0.355580940382107    0.215846684663129    0.140644265789490  0.0000
  O1     O1        0.653538690973990    0.526978291677292    0.122233400437994  0.0000
  O3     O3        0.836698954302328    0.436336153810525    0.117039600797991  0.0000
  O1     O1        0.337849901633720    0.436555826029954    0.927192104580487  0.0000
  O1     O1        0.145136593781016    0.516721810737651    0.937104704271272  0.0000
  O3     O3        0.733579067140618    0.211410370952522    0.071381331450900  0.0000
  O1     O1        0.765160812558284    0.748468413355834    0.044089946731330  0.0000
  O1     O1        0.225079193557475    0.205676451998752    0.980444480721583  0.0000
  O1     O1        0.261545795471778    0.747693586157909    0.981498472256621  0.0000
