data_c00582.vasp
_audit_creation_method             Generated by GULP
_audit_author_name                 Salvador R. G. Balestra
_symmetry_space_group_name_H-M     'P 1             '
_symmetry_Int_Tables_number        1

loop_
_symmetry_equiv_pos_site_id
_symmetry_equiv_pos_as_xyz
_cell_length_a                       17.6246
_cell_length_b                        7.8592
_cell_length_c                       10.2650
_cell_angle_alpha                   89.5960
_cell_angle_beta                    91.7029
_cell_angle_gamma                   88.1005

loop_
_atom_site_label
_atom_site_type_symbol
_atom_site_fract_x
_atom_site_fract_y
_atom_site_fract_z
_atom_site_charge
  Ge     Ge        0.052090000000021    0.000000000000000    0.372269999999958  0.0000
  Ge     Ge        0.441951540374528    0.955518344972649    0.364143583214686  0.0000
  Ge     Ge        0.941840896034695    0.955270729246281    0.619131410274986  0.0000
  Ge     Ge        0.537299879806496    0.008972669474193    0.628618132214074  0.0000
  Ge     Ge        0.554040301893393    0.011800302023878    0.133470117828711  0.0000
  Ge     Ge        0.437235794870821    0.959196550319462    0.887424577148539  0.0000
  Ge     Ge        0.147190682210883    0.306440817574194    0.256445724073311  0.0000
  Ge     Ge        0.348705911262704    0.639253559718476    0.255066450755887  0.0000
  Ge     Ge        0.819666640891621    0.241476400133710    0.694405748929101  0.0000
  Ge     Ge        0.663908551686882    0.723061547732219    0.697322431305802  0.0000
  Ge     Ge        0.844885987471369    0.643293094992264    0.693049028637434  0.0000
  Ge     Ge        0.638917913834560    0.320244872495487    0.697187658744223  0.0000
  Ge     Ge        0.169743327342646    0.709561559775215    0.267240714210173  0.0000
  Ge     Ge        0.645799399525456    0.321182233342561    0.015538081604473  0.0000
  Ge     Ge        0.853645220225975    0.640745387106114    0.009444391484447  0.0000
  Ge     Ge        0.317019163288772    0.263998100220765    0.934977141158356  0.0000
  Ge     Ge        0.157421303048574    0.720467462401803    0.951707768182192  0.0000
  Ge     Ge        0.137079946091287    0.315316081814430    0.940525947290100  0.0000
  Ge     Ge        0.671947232128260    0.722552836236997    0.013645385867605  0.0000
  Ge     Ge        0.827349011429896    0.238926961363050    0.012414468761852  0.0000
  Si     Si        0.943265934643768    0.947596051715960    0.123506171454516  0.0000
  Si     Si        0.039150415979222    0.010596685055587    0.878442277831713  0.0000
  Si     Si        0.323826888443647    0.247084720433649    0.247682018591550  0.0000
  Si     Si        0.334520406567551    0.656150008256750    0.942785318843436  0.0000
  O1     O1        0.085522627794077    0.199155830768622    0.349122992816583  0.0000
  O1     O1        0.418267242554313    0.748299554028411    0.332744464281871  0.0000
  O1     O1        0.868180982755405    0.102676190681838    0.597430793024721  0.0000
  O1     O1        0.611216742595994    0.864655446029151    0.602996335545235  0.0000
  O1     O1        0.906624198442921    0.755616426129120    0.602056045217379  0.0000
  O1     O1        0.571206624900748    0.210429156397085    0.613069965458772  0.0000
  O1     O1        0.125788595343843    0.854587773236171    0.364839736229336  0.0000
  O3     O3        0.366168949150309    0.090610148313332    0.321748226268101  0.0000
  O1     O1        0.017378364889758    0.991829557213942    0.526705081517734  0.0000
  O1     O1        0.460455168264472    0.977062184657373    0.528510660344382  0.0000
  O3     O3        0.975928162727770    0.953925816014332    0.270059657557389  0.0000
  O1     O1        0.525116774982613    0.001640072162435    0.291843086255950  0.0000
  O3     O3        0.969890161486223    0.973970082132890    0.782742813904020  0.0000
  O1     O1        0.511751159396255    0.975952544459938    0.787829394250901  0.0000
  O1     O1        0.581047296572111    0.215176356951808    0.103087494789478  0.0000
  O3     O3        0.918998613924785    0.755616060037858    0.097777694085321  0.0000
  O1     O1        0.371241541635372    0.121466775519730    0.852990128542798  0.0000
  O3     O3        0.108932909438719    0.875241253417964    0.860111898112978  0.0000
  O3     O3        0.391085924519257    0.769541682551782    0.863577349201990  0.0000
  O3     O3        0.069781285214346    0.199042406993710    0.856475057823773  0.0000
  O1     O1        0.628266066661495    0.871232967141377    0.109137657153054  0.0000
  O3     O3        0.873560613196995    0.082308625054732    0.106326121319157  0.0000
  O1     O1        0.473075223021827    0.966142530838625    0.044428643131651  0.0000
  O2     O2        0.010865541980764    0.993713407512445    0.027224900115304  0.0000
  O1     O1        0.124877525507947    0.519046848148720    0.267899452468737  0.0000
  O3     O3        0.369574711370057    0.421314175531130    0.261293629069066  0.0000
  O1     O1        0.831127763405886    0.444502553654282    0.633622235073535  0.0000
  O1     O1        0.649589558942555    0.520832649135857    0.637888127024066  0.0000
  O3     O3        0.241529200304769    0.276174271120705    0.308436616165957  0.0000
  O1     O1        0.262082279116049    0.680016870132206    0.321994979038334  0.0000
  O1     O1        0.724227607186465    0.205574839198499    0.693869588198019  0.0000
  O1     O1        0.759454670213471    0.757486872604480    0.695486794842672  0.0000
  O1     O1        0.139670520744765    0.241664831850869    0.098329656366603  0.0000
  O3     O3        0.339062722345670    0.706933023982911    0.094628314656293  0.0000
  O1     O1        0.853734165293603    0.228268750531689    0.853594649890516  0.0000
  O1     O1        0.635823137036866    0.736334378304708    0.856886320486282  0.0000
  O1     O1        0.879714150219338    0.622079887214436    0.851009609437105  0.0000
  O1     O1        0.613113430094380    0.336267446041938    0.857010278559693  0.0000
  O1     O1        0.164825821454198    0.785501796253127    0.109632612207895  0.0000
  O3     O3        0.313896955622877    0.199992940343203    0.096339356059798  0.0000
  O1     O1        0.657395471394506    0.521733948718198    0.075062775201848  0.0000
  O1     O1        0.846977045957484    0.438571714193910    0.071707891050308  0.0000
  O3     O3        0.359016161717336    0.459734833202302    0.926383464616094  0.0000
  O1     O1        0.113336829313028    0.528447098836505    0.937584555247879  0.0000
  O1     O1        0.731751661954151    0.209847410482638    0.020160433015856  0.0000
  O1     O1        0.767772839638335    0.750587599770364    0.012766179354303  0.0000
  O1     O1        0.225305028676540    0.281070113454522    0.876010113280993  0.0000
  O3     O3        0.247713320449306    0.686728349362107    0.892087773294933  0.0000
