data_c00566.vasp
_audit_creation_method             Generated by GULP
_audit_author_name                 Salvador R. G. Balestra
_symmetry_space_group_name_H-M     'P 1             '
_symmetry_Int_Tables_number        1

loop_
_symmetry_equiv_pos_site_id
_symmetry_equiv_pos_as_xyz
_cell_length_a                       17.5153
_cell_length_b                        7.8525
_cell_length_c                       10.3023
_cell_angle_alpha                   88.8904
_cell_angle_beta                    89.6405
_cell_angle_gamma                   91.5838

loop_
_atom_site_label
_atom_site_type_symbol
_atom_site_fract_x
_atom_site_fract_y
_atom_site_fract_z
_atom_site_charge
  Ge     Ge        0.052090000000021    0.000000000000000    0.372269999999958  0.0000
  Ge     Ge        0.447102335557964    0.055025210980860    0.371876200353251  0.0000
  Ge     Ge        0.949674649955416    0.066329164638723    0.628716454005132  0.0000
  Ge     Ge        0.552849894255915    0.021307677697875    0.627795251293074  0.0000
  Ge     Ge        0.551882066919790    0.009151110724981    0.118152356772959  0.0000
  Ge     Ge        0.948849464416577    0.071947171393590    0.119962173067610  0.0000
  Ge     Ge        0.174380923108568    0.289913636034576    0.257855732850601  0.0000
  Ge     Ge        0.326354044252583    0.771791539010955    0.260340020947033  0.0000
  Ge     Ge        0.855974423483792    0.389087849518779    0.690751637010707  0.0000
  Ge     Ge        0.671378851175965    0.317858029649101    0.691510775321893  0.0000
  Ge     Ge        0.144257350920673    0.689322131937475    0.257294711622126  0.0000
  Ge     Ge        0.356180560644523    0.372651161978181    0.254008776968494  0.0000
  Ge     Ge        0.673363526965397    0.299863693172781    0.005995503598339  0.0000
  Ge     Ge        0.826164971286930    0.786006969508804    0.003908297717196  0.0000
  Ge     Ge        0.352942461497761    0.380079961406243    0.938274219725563  0.0000
  Ge     Ge        0.149060924571674    0.707034204503801    0.942710215683388  0.0000
  Ge     Ge        0.332759246675453    0.780770234276273    0.946493519150530  0.0000
  Ge     Ge        0.169605997611524    0.305856884818194    0.943193097632845  0.0000
  Ge     Ge        0.646303493663229    0.702769816892432    0.000599300741520  0.0000
  Ge     Ge        0.855861467947270    0.383791229011731    0.004982683844124  0.0000
  Si     Si        0.449620482149593    0.075174850287951    0.875492954995932  0.0000
  Si     Si        0.052937425332607    0.016262283157684    0.876057462477781  0.0000
  Si     Si        0.652419493062892    0.707949238107670    0.690841368023470  0.0000
  Si     Si        0.829309907703775    0.778779235210454    0.694390795956730  0.0000
  O1     O1        0.130037682535831    0.133810697240389    0.349817923366032  0.0000
  O1     O1        0.369225115822256    0.921282991303673    0.355388535821649  0.0000
  O1     O1        0.917452999156896    0.268290334420174    0.602739037000438  0.0000
  O3     O3        0.596585454555505    0.827133005274910    0.611000810545614  0.0000
  O3     O3        0.871637988773873    0.926160060071165    0.611162064193553  0.0000
  O1     O1        0.620261842514573    0.179646933883185    0.597140620190322  0.0000
  O1     O1        0.077062186896429    0.794484196253699    0.343758018517310  0.0000
  O1     O1        0.423346804269463    0.261674677569585    0.337255190783075  0.0000
  O1     O1        0.023433334664439    0.015829153304382    0.531759906200202  0.0000
  O1     O1        0.475765990000745    0.038151883239095    0.530992248519580  0.0000
  O1     O1        0.975907943737469    0.057085033968161    0.279031957767461  0.0000
  O1     O1        0.522699569113103    0.998622041788876    0.276950565433905  0.0000
  O3     O3        0.980180370587701    0.050245672527269    0.789000388073756  0.0000
  O3     O3        0.522248502167949    0.038978820094356    0.787903035996397  0.0000
  O1     O1        0.628372625650760    0.148787948208370    0.102771343182753  0.0000
  O1     O1        0.872440120380178    0.936549329253543    0.092028323475845  0.0000
  O3     O3        0.414950363406739    0.260413178531327    0.847762281756617  0.0000
  O3     O3        0.087910061070149    0.831853279939009    0.852624416795694  0.0000
  O3     O3        0.383403855875811    0.931738614183717    0.854992074852388  0.0000
  O3     O3        0.118686121206531    0.161419981877656    0.851134151936234  0.0000
  O1     O1        0.575077172684143    0.806144291124663    0.076170900119380  0.0000
  O1     O1        0.922406004584089    0.278148496803367    0.093831489304462  0.0000
  O3     O3        0.475444971144744    0.074994040742944    0.025908970003538  0.0000
  O3     O3        0.026885069269813    0.019199473646825    0.026976536911169  0.0000
  O1     O1        0.157091269989659    0.488393756736184    0.319447871143641  0.0000
  O1     O1        0.342897802550761    0.568994143516477    0.319149372306304  0.0000
  O3     O3        0.850065362776881    0.597276610545532    0.634513184186394  0.0000
  O3     O3        0.656102023883447    0.522821543298059    0.630511842624291  0.0000
  O1     O1        0.270645146304237    0.258329246567665    0.255856127105880  0.0000
  O1     O1        0.229996767483494    0.802283111488237    0.257922465632578  0.0000
  O1     O1        0.767620701342800    0.288497947072516    0.686202080604716  0.0000
  O2     O2        0.737400407824147    0.797434399077816    0.693966407547272  0.0000
  O1     O1        0.139513722160753    0.288281274292642    0.102000862798723  0.0000
  O1     O1        0.362838414702656    0.789406659638894    0.104707674500221  0.0000
  O1     O1        0.887827357087021    0.393929980597106    0.847141920610802  0.0000
  O3     O3        0.623435710370212    0.683512680757554    0.838135290046045  0.0000
  O3     O3        0.856249321237789    0.788940085130584    0.843069184653192  0.0000
  O1     O1        0.641075318514970    0.286611015516705    0.849262820402388  0.0000
  O1     O1        0.115832641572508    0.675138273877778    0.098508972981924  0.0000
  O1     O1        0.383612481879041    0.403284149838381    0.094954055168884  0.0000
  O1     O1        0.656163063844023    0.501188057731606    0.062382961034255  0.0000
  O1     O1        0.843871776133439    0.584159038992962    0.063090639225365  0.0000
  O1     O1        0.346027864592205    0.583866089413026    0.878800781951333  0.0000
  O1     O1        0.156478178747300    0.508177205961011    0.879673600118409  0.0000
  O1     O1        0.769988281199469    0.271693606658662    0.007629985528724  0.0000
  O1     O1        0.730182103811143    0.819524510866358    0.014521734049117  0.0000
  O1     O1        0.265875596731505    0.272779675767024    0.939243970536615  0.0000
  O1     O1        0.236301358359388    0.813104767497364    0.945972082214996  0.0000
