data_c00553.vasp
_audit_creation_method             Generated by GULP
_audit_author_name                 Salvador R. G. Balestra
_symmetry_space_group_name_H-M     'P 1             '
_symmetry_Int_Tables_number        1

loop_
_symmetry_equiv_pos_site_id
_symmetry_equiv_pos_as_xyz
_cell_length_a                       17.5717
_cell_length_b                        7.8346
_cell_length_c                       10.3137
_cell_angle_alpha                   90.7053
_cell_angle_beta                    90.7569
_cell_angle_gamma                   91.4858

loop_
_atom_site_label
_atom_site_type_symbol
_atom_site_fract_x
_atom_site_fract_y
_atom_site_fract_z
_atom_site_charge
  Ge     Ge        0.052090000000021    0.000000000000000    0.372269999999958  0.0000
  Ge     Ge        0.449153875605631    0.055974822382688    0.406464177470309  0.0000
  Ge     Ge        0.945728187494169    0.051801271858875    0.623110472243282  0.0000
  Ge     Ge        0.548822989141680    0.005247452795452    0.669502479245232  0.0000
  Ge     Ge        0.554248936968316    0.006108339434256    0.157321579125448  0.0000
  Ge     Ge        0.952737440910194    0.068380419029157    0.111267201380294  0.0000
  Ge     Ge        0.174164265678937    0.282257293396450    0.291160913989566  0.0000
  Ge     Ge        0.326744506581259    0.767720417527791    0.295098906662773  0.0000
  Ge     Ge        0.849006875666066    0.365619613100610    0.736281123968986  0.0000
  Ge     Ge        0.643965607162448    0.685048056412342    0.734217640115546  0.0000
  Ge     Ge        0.824961554528536    0.764747520852497    0.728569226505864  0.0000
  Ge     Ge        0.146314029386171    0.684820114227308    0.295459801464591  0.0000
  Ge     Ge        0.354641955110695    0.367171104880231    0.289937548541788  0.0000
  Ge     Ge        0.671924385241145    0.303551933908455    0.048193018783367  0.0000
  Ge     Ge        0.826429344532485    0.779935289671487    0.042807689947539  0.0000
  Ge     Ge        0.351297755518291    0.368339633543860    0.974822940957439  0.0000
  Ge     Ge        0.144937294344413    0.694861618945843    0.981223037136797  0.0000
  Ge     Ge        0.328668804782654    0.768047558519553    0.981054941614913  0.0000
  Ge     Ge        0.168697404018633    0.290239718842880    0.976154304893604  0.0000
  Ge     Ge        0.852060830653347    0.381447284164829    0.055431094711928  0.0000
  Si     Si        0.446525772492870    0.056357747096965    0.915914422137564  0.0000
  Si     Si        0.053063589512662    0.001533217961075    0.864182739945767  0.0000
  Si     Si        0.671165319109031    0.289025326820729    0.739276091634806  0.0000
  Si     Si        0.648310284816739    0.701517955207750    0.039995562936347  0.0000
  O1     O1        0.127412364354634    0.143482284669339    0.390391706463545  0.0000
  O1     O1        0.372511129756055    0.917980214668481    0.390318977851476  0.0000
  O1     O1        0.915555452110916    0.253421583684638    0.654882601092342  0.0000
  O1     O1        0.579551998725721    0.800110046688204    0.647934157728574  0.0000
  O1     O1        0.870864791933077    0.910680065709791    0.633923395070557  0.0000
  O3     O3        0.624968842001667    0.149184778384815    0.653961239787676  0.0000
  O1     O1        0.083779978515273    0.796190240567944    0.388769357587234  0.0000
  O1     O1        0.423540684862364    0.260157219660748    0.371191092795901  0.0000
  O1     O1        0.976497561506084    0.045818425765254    0.465257111993319  0.0000
  O1     O1        0.476960829393834    0.052182625063791    0.567143709713661  0.0000
  O1     O1        0.025328711523434    0.018613143049641    0.210398834711251  0.0000
  O1     O1        0.525033211671475    0.996323727057288    0.314941560007334  0.0000
  O3     O3        0.024340596935854    0.998590935856596    0.715668760773165  0.0000
  O3     O3        0.517862237284388    0.019047232153397    0.828484302593411  0.0000
  O1     O1        0.621148824459168    0.167853635332179    0.143315759457366  0.0000
  O1     O1        0.874335173370691    0.934017858214941    0.130142974727750  0.0000
  O3     O3        0.414591261371500    0.244194238591466    0.890624844810885  0.0000
  O3     O3        0.078540790194909    0.811477589108408    0.898393813777491  0.0000
  O3     O3        0.377969586022403    0.918210499485272    0.891871652195091  0.0000
  O3     O3        0.123502050114484    0.135078484176900    0.881230977511430  0.0000
  O3     O3        0.589568637595565    0.806873971950072    0.123889552661423  0.0000
  O1     O1        0.920747771388198    0.271991016537474    0.135873788002233  0.0000
  O3     O3        0.473863869297494    0.047525793229435    0.066033598606977  0.0000
  O3     O3        0.982600427212589    0.057803591709250    0.951080096661958  0.0000
  O1     O1        0.160180033977043    0.485611384182188    0.352680258647551  0.0000
  O1     O1        0.341137157376703    0.566116347115652    0.355226956142822  0.0000
  O1     O1        0.840870985669821    0.562578365629884    0.669262492691154  0.0000
  O3     O3        0.654264246326495    0.476843569984801    0.682969050482679  0.0000
  O1     O1        0.270152392390594    0.249138823650617    0.290135920162411  0.0000
  O1     O1        0.230872309185771    0.801485185294387    0.291711714226174  0.0000
  O3     O3        0.760933912708253    0.257632350400245    0.733615046200117  0.0000
  O1     O1        0.728978217557882    0.795169394253175    0.724465822575824  0.0000
  O1     O1        0.139096038746365    0.272328063586693    0.133724476090033  0.0000
  O1     O1        0.360130478043534    0.778620040082694    0.139227736081000  0.0000
  O1     O1        0.876003481655480    0.395079877915915    0.894438067264410  0.0000
  O3     O3        0.615855316450182    0.680903495674327    0.894417842817597  0.0000
  O1     O1        0.857736264232096    0.787015391366318    0.885623671447461  0.0000
  O3     O3        0.643700997826711    0.278411772148820    0.887719594678140  0.0000
  O1     O1        0.114398500908279    0.670056463599830    0.136940759107748  0.0000
  O1     O1        0.381395789205274    0.396720642934867    0.132456768982588  0.0000
  O3     O3        0.659772084977419    0.514512162402600    0.097553496944125  0.0000
  O1     O1        0.844691012625175    0.585602837565936    0.112071783694164  0.0000
  O1     O1        0.343305563474427    0.568720043585619    0.913159596607422  0.0000
  O1     O1        0.151690342310287    0.491475721852940    0.918252373024581  0.0000
  O1     O1        0.766947967673524    0.267802012342994    0.064359656592583  0.0000
  O3     O3        0.728819152816794    0.806006739394239    0.038714864027706  0.0000
  O1     O1        0.264801379151728    0.260769430096829    0.973627350043222  0.0000
  O1     O1        0.232224377033639    0.799044588746033    0.977990060957010  0.0000
