data_c00505.vasp
_audit_creation_method             Generated by GULP
_audit_author_name                 Salvador R. G. Balestra
_symmetry_space_group_name_H-M     'P 1             '
_symmetry_Int_Tables_number        1

loop_
_symmetry_equiv_pos_site_id
_symmetry_equiv_pos_as_xyz
_cell_length_a                       17.6491
_cell_length_b                        7.8077
_cell_length_c                       10.1893
_cell_angle_alpha                   89.1106
_cell_angle_beta                    90.4789
_cell_angle_gamma                   90.8862

loop_
_atom_site_label
_atom_site_type_symbol
_atom_site_fract_x
_atom_site_fract_y
_atom_site_fract_z
_atom_site_charge
  Ge     Ge        0.052090000000021    0.000000000000000    0.372269999999958  0.0000
  Ge     Ge        0.441888216062006    0.045462631609220    0.361312374394939  0.0000
  Ge     Ge        0.944317869251068    0.062699534278977    0.621119182485080  0.0000
  Ge     Ge        0.550927296282122    0.011596168555726    0.614142796846539  0.0000
  Ge     Ge        0.550318283803539    0.003467615568269    0.116215368632466  0.0000
  Ge     Ge        0.945492956036010    0.060863058774094    0.117321583504536  0.0000
  Ge     Ge        0.444650474130710    0.064599498284200    0.865381208387812  0.0000
  Ge     Ge        0.172529133560047    0.282394575260178    0.255814032158217  0.0000
  Ge     Ge        0.324252314749484    0.753692506553622    0.253944517599603  0.0000
  Ge     Ge        0.824586201808038    0.769268888899197    0.683120103922296  0.0000
  Ge     Ge        0.670338654965152    0.302677942646361    0.683530426335773  0.0000
  Ge     Ge        0.142372578555837    0.682750055228663    0.258884004560815  0.0000
  Ge     Ge        0.672028123701436    0.288527493583242    0.001986734395807  0.0000
  Ge     Ge        0.823170186413550    0.779628576100481    0.002020654593093  0.0000
  Ge     Ge        0.341215439767507    0.370524939258185    0.926506955278827  0.0000
  Ge     Ge        0.141899779816491    0.695846566216794    0.940226112459165  0.0000
  Ge     Ge        0.321751143386694    0.775643244700655    0.938552450824067  0.0000
  Ge     Ge        0.163067586828209    0.290479788048749    0.936947532426157  0.0000
  Ge     Ge        0.644636979191379    0.695560997845729    0.993196827743344  0.0000
  Ge     Ge        0.850545068472321    0.373845526364535    0.997394682916726  0.0000
  Si     Si        0.045140017744083    0.003186681352687    0.871207157865318  0.0000
  Si     Si        0.847101379186834    0.376375613811212    0.683717028019453  0.0000
  Si     Si        0.647957073406186    0.696648935530195    0.678728522499708  0.0000
  Si     Si        0.348565238188097    0.357779224794399    0.240592367847682  0.0000
  O1     O1        0.132217574797036    0.122755174475000    0.347761876586759  0.0000
  O1     O1        0.371861110428636    0.892457967411084    0.354277616084619  0.0000
  O3     O3        0.906744942813827    0.265797402375550    0.604320940103217  0.0000
  O3     O3        0.588192794332580    0.808577326583540    0.596467141253623  0.0000
  O1     O1        0.874845110306844    0.912110556625911    0.588261302779741  0.0000
  O1     O1        0.621282249597901    0.163046313416052    0.586633907743951  0.0000
  O1     O1        0.076461151185810    0.791421497609108    0.346582957153241  0.0000
  O3     O3        0.412238019658650    0.247965943960610    0.314371406658872  0.0000
  O1     O1        0.022856942088001    0.031628198609868    0.530668503013471  0.0000
  O1     O1        0.471886227863226    0.049296363391358    0.522897408223918  0.0000
  O1     O1        0.975918198537011    0.059965590579453    0.277233096365421  0.0000
  O1     O1        0.521904144916880    0.994036799072104    0.276947230762100  0.0000
  O3     O3        0.971371807281729    0.038659049961883    0.785254274643814  0.0000
  O1     O1        0.522571642364361    0.026073644146569    0.775565887252265  0.0000
  O1     O1        0.626418000548562    0.141358552782182    0.099621007513661  0.0000
  O1     O1        0.869568415387100    0.923669084488790    0.099460776935096  0.0000
  O1     O1        0.406435551406577    0.264307095821503    0.837960585040607  0.0000
  O3     O3        0.079952010865625    0.817460194485872    0.845838502974996  0.0000
  O1     O1        0.372834418050894    0.915533141501493    0.843307408071111  0.0000
  O3     O3        0.108863253138191    0.149965515835430    0.845693496362113  0.0000
  O1     O1        0.573853219510969    0.799834281809082    0.068899318891735  0.0000
  O1     O1        0.921221020575365    0.267513660877212    0.076837080897184  0.0000
  O1     O1        0.472999690275257    0.067890128334648    0.027648816874408  0.0000
  O3     O3        0.021791493249107    0.000399827732421    0.024434556945782  0.0000
  O1     O1        0.153144299403394    0.478646324039918    0.320695317785548  0.0000
  O3     O3        0.339075403027439    0.542681996918553    0.305381483790663  0.0000
  O3     O3        0.839174872696288    0.565190276453629    0.622354204141751  0.0000
  O3     O3        0.655659341411691    0.508534430497283    0.621015901957973  0.0000
  O3     O3        0.269360063584678    0.252007913887732    0.248912008779074  0.0000
  O1     O1        0.228812169459852    0.788302494484566    0.260444087544366  0.0000
  O3     O3        0.767252173980078    0.271981081968596    0.682879620104613  0.0000
  O3     O3        0.727868814437474    0.800889070137212    0.677389286534424  0.0000
  O1     O1        0.136694846903515    0.275434167840099    0.098544498438298  0.0000
  O1     O1        0.356467833451079    0.788168091740891    0.097036736038908  0.0000
  O3     O3        0.873625096966934    0.402006869569614    0.833472155456728  0.0000
  O3     O3        0.621946966300581    0.670875514481406    0.828740552397669  0.0000
  O1     O1        0.853538181197134    0.796931268772566    0.842432362422042  0.0000
  O1     O1        0.640308622799142    0.272316870715361    0.842106127251828  0.0000
  O1     O1        0.112012306542965    0.666456486723489    0.098909191677006  0.0000
  O3     O3        0.369307492683667    0.392140096346811    0.089654554558777  0.0000
  O1     O1        0.656056088337742    0.493075138240222    0.056118790092821  0.0000
  O1     O1        0.839331643918770    0.573874686974449    0.059249025594688  0.0000
  O1     O1        0.330172767678058    0.574937500155323    0.871192747850801  0.0000
  O1     O1        0.150692520805326    0.496539305275049    0.876355187410040  0.0000
  O1     O1        0.767933963154612    0.255384499714480    0.008348756444700  0.0000
  O1     O1        0.727337409893082    0.813327606970056    0.007047723832493  0.0000
  O1     O1        0.257977703520854    0.251941218564406    0.923727756589800  0.0000
  O1     O1        0.226198954222867    0.810331122729351    0.944358622796926  0.0000
