data_c00589.vasp
_audit_creation_method             Generated by GULP
_audit_author_name                 Salvador R. G. Balestra
_symmetry_space_group_name_H-M     'P 1             '
_symmetry_Int_Tables_number        1

loop_
_symmetry_equiv_pos_site_id
_symmetry_equiv_pos_as_xyz
_cell_length_a                       17.5480
_cell_length_b                        7.8491
_cell_length_c                       10.3370
_cell_angle_alpha                   91.1396
_cell_angle_beta                    90.3495
_cell_angle_gamma                   88.4580

loop_
_atom_site_label
_atom_site_type_symbol
_atom_site_fract_x
_atom_site_fract_y
_atom_site_fract_z
_atom_site_charge
  Ge     Ge        0.052090000000021    0.000000000000000    0.372269999999958  0.0000
  Ge     Ge        0.448018685442245    0.953108084192736    0.371752606598793  0.0000
  Ge     Ge        0.949809716563507    0.945234365433538    0.631921571727802  0.0000
  Ge     Ge        0.551740609826314    0.001921854035988    0.625673033094607  0.0000
  Ge     Ge        0.548099721471918    0.016258396303448    0.116128014602041  0.0000
  Ge     Ge        0.440994687553744    0.946110006524403    0.865695873682096  0.0000
  Ge     Ge        0.145082356996975    0.316299491343922    0.296239499677673  0.0000
  Ge     Ge        0.347713711009950    0.639880325027112    0.298951010949203  0.0000
  Ge     Ge        0.826350281431294    0.234442323368352    0.736242880727050  0.0000
  Ge     Ge        0.674446877097694    0.717210626655814    0.738121391704630  0.0000
  Ge     Ge        0.856167261325225    0.633197512056960    0.738345224733181  0.0000
  Ge     Ge        0.645381652327334    0.317013348990613    0.742305737955132  0.0000
  Ge     Ge        0.326343621172255    0.238252362602561    0.296756556972099  0.0000
  Ge     Ge        0.650804669706472    0.325092711877322    0.059707612301855  0.0000
  Ge     Ge        0.855781456720354    0.644791662404466    0.051969158717966  0.0000
  Ge     Ge        0.323470598993563    0.235529193713526    0.984570620117999  0.0000
  Ge     Ge        0.164685484611472    0.702947021606811    0.986913643148227  0.0000
  Ge     Ge        0.348247121566167    0.635444193339071    0.981792603503182  0.0000
  Ge     Ge        0.673786909824501    0.725518782716984    0.051284563742638  0.0000
  Ge     Ge        0.832205812039053    0.244373732464502    0.051883263697269  0.0000
  Si     Si        0.951350075535719    0.956712433406870    0.118967233388727  0.0000
  Si     Si        0.053290153479786    0.000121290317297    0.878953403968194  0.0000
  Si     Si        0.170012377378997    0.712304373834986    0.294630040460369  0.0000
  Si     Si        0.142536765565964    0.307734027289092    0.993772608842981  0.0000
  O1     O1        0.085507639467374    0.203076145073354    0.390504945579064  0.0000
  O1     O1        0.410784558458333    0.754927640566380    0.389258529229044  0.0000
  O1     O1        0.872162964726243    0.079847213844642    0.645849525834653  0.0000
  O1     O1        0.628452248609312    0.866393930840816    0.646003503168937  0.0000
  O1     O1        0.923676529955506    0.740208051655793    0.655591429893960  0.0000
  O1     O1        0.575809219934422    0.207596673655273    0.662286341188790  0.0000
  O3     O3        0.125440523034243    0.848373777918796    0.384968481265370  0.0000
  O1     O1        0.375415749085374    0.101780180119379    0.394997448189744  0.0000
  O1     O1        0.981122905291680    0.959639769728551    0.475445718831375  0.0000
  O1     O1        0.526119383405838    0.989051759502413    0.464281250845491  0.0000
  O3     O3        0.020465817868565    0.990705215087919    0.213159630631218  0.0000
  O1     O1        0.473523184101448    0.971426508545625    0.211097576222549  0.0000
  O3     O3        0.024448157438026    0.004378006655484    0.732443676919631  0.0000
  O1     O1        0.471720359754807    0.946357289602021    0.708320568983885  0.0000
  O1     O1        0.584791236399241    0.215630180129314    0.143323842641835  0.0000
  O3     O3        0.919159719510685    0.769079434702928    0.138220339087432  0.0000
  O1     O1        0.361791890713399    0.077490567144660    0.888241745957882  0.0000
  O3     O3        0.115562124155586    0.848303089002988    0.894049899214108  0.0000
  O1     O1        0.415623204292845    0.742093565061651    0.899847942720596  0.0000
  O2     O2        0.087615188375036    0.185460273707378    0.910197896082796  0.0000
  O1     O1        0.622524338404258    0.872005940717867    0.139979145247247  0.0000
  O3     O3        0.883459135975595    0.096039875944504    0.140202938301277  0.0000
  O1     O1        0.516810637425144    0.011623657681221    0.957404176184913  0.0000
  O2     O2        0.980515161104707    0.966496840242801    0.969688517304638  0.0000
  O3     O3        0.157124685560003    0.523427053995042    0.349366724703327  0.0000
  O1     O1        0.340768688393544    0.441319006605026    0.358125782380463  0.0000
  O1     O1        0.842499988966526    0.433218653176769    0.674662776991943  0.0000
  O1     O1        0.657160600049930    0.514825081511940    0.678762489030206  0.0000
  O1     O1        0.230555850348622    0.205224345794271    0.297628824755432  0.0000
  O3     O3        0.259524285859450    0.747335915220459    0.295648989028781  0.0000
  O1     O1        0.730182150482033    0.201315475022233    0.733833299631257  0.0000
  O1     O1        0.770817661963869    0.747522056762966    0.736952609942192  0.0000
  O3     O3        0.110759577010964    0.325667404373017    0.138622097967846  0.0000
  O1     O1        0.376525705928850    0.625004819356353    0.140669836667837  0.0000
  O1     O1        0.859047041642361    0.231219252335498    0.892997760515890  0.0000
  O1     O1        0.640949628183366    0.735843826903057    0.893892189477413  0.0000
  O1     O1        0.885611632628859    0.612831876579920    0.895801365669053  0.0000
  O1     O1        0.621428196213919    0.345907930322939    0.901464216818413  0.0000
  O3     O3        0.139029163034062    0.723182453326664    0.147476954523130  0.0000
  O1     O1        0.359071572640380    0.220617671738060    0.139479072065234  0.0000
  O1     O1        0.661676387896543    0.527728535446824    0.117968321356625  0.0000
  O1     O1        0.847113068168357    0.446725338386462    0.115423704669452  0.0000
  O1     O1        0.343233212088295    0.430324653275072    0.922293655480630  0.0000
  O3     O3        0.146301078225220    0.495017992284225    0.934359976952215  0.0000
  O1     O1        0.736249746668816    0.210777607239906    0.061151147627182  0.0000
  O1     O1        0.769991548194321    0.756626458615609    0.049778330332999  0.0000
  O3     O3        0.225854235377602    0.218861408673863    0.997867235106449  0.0000
  O1     O1        0.259864357158619    0.735655304027836    0.970105870573485  0.0000
