data_c00555.vasp
_audit_creation_method             Generated by GULP
_audit_author_name                 Salvador R. G. Balestra
_symmetry_space_group_name_H-M     'P 1             '
_symmetry_Int_Tables_number        1

loop_
_symmetry_equiv_pos_site_id
_symmetry_equiv_pos_as_xyz
_cell_length_a                       17.4954
_cell_length_b                        7.7596
_cell_length_c                       10.5084
_cell_angle_alpha                   91.7438
_cell_angle_beta                    91.7466
_cell_angle_gamma                   92.1354

loop_
_atom_site_label
_atom_site_type_symbol
_atom_site_fract_x
_atom_site_fract_y
_atom_site_fract_z
_atom_site_charge
  Ge     Ge        0.052090000000021    0.000000000000000    0.372269999999958  0.0000
  Ge     Ge        0.464149184931855    0.003030568064053    0.335130295622585  0.0000
  Ge     Ge        0.943802173036958    0.978030845918732    0.619034484936158  0.0000
  Ge     Ge        0.544543566247656    0.953161614224475    0.609130875925932  0.0000
  Ge     Ge        0.547823805518170    0.970793503107913    0.062519610136089  0.0000
  Ge     Ge        0.940691589077411    0.001738686730611    0.118663639767263  0.0000
  Ge     Ge        0.151705818923978    0.312867976837780    0.263659284934359  0.0000
  Ge     Ge        0.356980086114568    0.677796619526344    0.250573655747587  0.0000
  Ge     Ge        0.842456094344529    0.285019279946464    0.704694488297418  0.0000
  Ge     Ge        0.635084430337499    0.624878282464733    0.681309794991829  0.0000
  Ge     Ge        0.818425040929799    0.697492600355731    0.690307333467402  0.0000
  Ge     Ge        0.176356750388715    0.727238480146321    0.263520393657700  0.0000
  Ge     Ge        0.333090534212363    0.258580721638277    0.250498165756541  0.0000
  Ge     Ge        0.676433791094134    0.259263198727123    0.004974480229112  0.0000
  Ge     Ge        0.817987171306459    0.718692151407153    0.995991075305197  0.0000
  Ge     Ge        0.322641175168829    0.255781561037025    0.943165450402954  0.0000
  Ge     Ge        0.160636990635456    0.707184058308086    0.954791982851201  0.0000
  Ge     Ge        0.137269801198207    0.299122084321620    0.952892927278814  0.0000
  Ge     Ge        0.632387772933755    0.633925835385370    0.995786144659591  0.0000
  Ge     Ge        0.854035600689959    0.316556728605237    0.009541860112133  0.0000
  Si     Si        0.427632461816885    0.975175122490063    0.829361059779914  0.0000
  Si     Si        0.041337853661752    0.971049609314037    0.875898904901981  0.0000
  Si     Si        0.669387357822812    0.246076542900263    0.699779966741199  0.0000
  Si     Si        0.342214703512476    0.664398010833028    0.949424548306224  0.0000
  O1     O1        0.087744584825884    0.206976588147803    0.356167638703747  0.0000
  O1     O1        0.429362401386156    0.792311748458176    0.330763499544876  0.0000
  O1     O1        0.906871214214092    0.177972407397496    0.613984896216235  0.0000
  O1     O1        0.571643611198895    0.744331300791257    0.596259454106863  0.0000
  O1     O1        0.869571093257419    0.828405142846949    0.593089267771320  0.0000
  O3     O3        0.619821377411236    0.068900976450931    0.688276471829790  0.0000
  O1     O1        0.127304994074636    0.866197863848039    0.354871173586179  0.0000
  O1     O1        0.387687482764098    0.134979568566261    0.345441021603606  0.0000
  O1     O1        0.018840320223391    0.965359934604110    0.521070838992125  0.0000
  O1     O1        0.527359743541555    0.033386124589581    0.461860833934079  0.0000
  O1     O1        0.975659001998381    0.961082964680277    0.268044637499348  0.0000
  O1     O1        0.510324296106096    0.051620239677855    0.198068315127102  0.0000
  O3     O3        0.977714336932707    0.922047172030420    0.769806389057933  0.0000
  O3     O3        0.459746145880002    0.968162139914347    0.689204966965007  0.0000
  O1     O1        0.637550983704296    0.064310113356895    0.038161389296210  0.0000
  O1     O1        0.856886951984724    0.881873280054821    0.092502914124265  0.0000
  O3     O3        0.363127379817035    0.116536301446845    0.835895124049389  0.0000
  O3     O3        0.115747127149411    0.854586255185376    0.863490548635500  0.0000
  O2     O2        0.394811083453795    0.783637491321747    0.861349006623307  0.0000
  O3     O3        0.069792780289430    0.170702804710140    0.867028550271774  0.0000
  O1     O1        0.567833591734676    0.757816628962609    0.073454165940188  0.0000
  O1     O1        0.921660857323495    0.215163109385540    0.099850867983285  0.0000
  O3     O3        0.494829432102321    0.031049136727067    0.931028405198007  0.0000
  O3     O3        0.008481378059446    0.932202020306784    0.013652736209013  0.0000
  O1     O1        0.167926248141664    0.520049020411085    0.318653791468704  0.0000
  O1     O1        0.347280804712980    0.472266226739100    0.299578352961647  0.0000
  O1     O1        0.860530475503539    0.501490228741570    0.697560553442825  0.0000
  O3     O3        0.619991397241047    0.402944124602739    0.649444309420660  0.0000
  O1     O1        0.237281303417904    0.208865665425578    0.259577085161840  0.0000
  O1     O1        0.272433748610675    0.782152952330024    0.265248551798433  0.0000
  O3     O3        0.751399015992597    0.228721686503874    0.637042846876036  0.0000
  O1     O1        0.725914123843641    0.668458974824205    0.632354115966749  0.0000
  O1     O1        0.113592204696467    0.304440827180692    0.110195932591941  0.0000
  O3     O3        0.380441073337304    0.676425166822104    0.090340774515530  0.0000
  O1     O1        0.856824876653371    0.221765945085226    0.858546851747150  0.0000
  O1     O1        0.619250918941710    0.680489467437998    0.837371379652898  0.0000
  O1     O1        0.812707161643885    0.785649646559377    0.841693237070000  0.0000
  O3     O3        0.695719109542134    0.303286654872058    0.845417077919570  0.0000
  O1     O1        0.137402085628359    0.723030046243879    0.111459094974961  0.0000
  O1     O1        0.359234399334404    0.231550310382330    0.094024844134871  0.0000
  O1     O1        0.615182895437354    0.422934362044414    0.036850714834942  0.0000
  O1     O1        0.871408604705997    0.535267353442460    0.005542396989878  0.0000
  O3     O3        0.337491162398506    0.468403329835347    0.897230531683787  0.0000
  O1     O1        0.137996054310215    0.502395992099472    0.895046165100274  0.0000
  O1     O1        0.765863769326809    0.277436236369846    0.074625641248398  0.0000
  O1     O1        0.727161583430609    0.666384798881518    0.042398811961232  0.0000
  O1     O1        0.226256228231206    0.213919233197392    0.942891265799154  0.0000
  O3     O3        0.258813731808380    0.742177432962272    0.953986998716776  0.0000
