data_c00531.vasp
_audit_creation_method             Generated by GULP
_audit_author_name                 Salvador R. G. Balestra
_symmetry_space_group_name_H-M     'P 1             '
_symmetry_Int_Tables_number        1

loop_
_symmetry_equiv_pos_site_id
_symmetry_equiv_pos_as_xyz
_cell_length_a                       17.6161
_cell_length_b                        7.8067
_cell_length_c                       10.2129
_cell_angle_alpha                   90.5552
_cell_angle_beta                    89.9167
_cell_angle_gamma                   88.6325

loop_
_atom_site_label
_atom_site_type_symbol
_atom_site_fract_x
_atom_site_fract_y
_atom_site_fract_z
_atom_site_charge
  Ge     Ge        0.052090000000021    0.000000000000000    0.372269999999958  0.0000
  Ge     Ge        0.438955173081939    0.954099133082554    0.331684050695932  0.0000
  Ge     Ge        0.945205349648663    0.943607000661219    0.621092016378096  0.0000
  Ge     Ge        0.549115682791426    0.997865661565487    0.577160732026226  0.0000
  Ge     Ge        0.537640453105552    0.015813608130430    0.071590658351230  0.0000
  Ge     Ge        0.937402298164966    0.950069845349940    0.130016236449863  0.0000
  Ge     Ge        0.434130519483202    0.951941864589036    0.816596580533835  0.0000
  Ge     Ge        0.341447710910384    0.637781027874233    0.261724869533861  0.0000
  Ge     Ge        0.819598382460188    0.226082180463855    0.694772717075409  0.0000
  Ge     Ge        0.666120980388680    0.703124951999486    0.686677518910563  0.0000
  Ge     Ge        0.847836782394308    0.627679163496655    0.688645792235427  0.0000
  Ge     Ge        0.317260971112450    0.237528768628881    0.253394741598010  0.0000
  Ge     Ge        0.638683145588033    0.325091660727526    0.010480443324150  0.0000
  Ge     Ge        0.843455406186538    0.640348217251519    0.006931409834537  0.0000
  Ge     Ge        0.313655051150728    0.238587367304252    0.936496547313690  0.0000
  Ge     Ge        0.157680929180454    0.723207875080817    0.950531545196679  0.0000
  Ge     Ge        0.338534290407771    0.646067172716372    0.942192698094307  0.0000
  Ge     Ge        0.133088672040167    0.315283326417383    0.945418249199336  0.0000
  Ge     Ge        0.663804643248888    0.729727309409772    0.001974614710627  0.0000
  Ge     Ge        0.816047230196762    0.233648959873516    0.013900596730537  0.0000
  Si     Si        0.037876600255377    0.007768482025446    0.879155452021744  0.0000
  Si     Si        0.139030942137881    0.312610036631936    0.252316035475947  0.0000
  Si     Si        0.642922860415889    0.306821585561615    0.697058246125589  0.0000
  Si     Si        0.163210280843579    0.706139931310321    0.259307774711446  0.0000
  O3     O3        0.084454576868489    0.204128760331574    0.343765636964449  0.0000
  O1     O1        0.404014845104233    0.752884457957643    0.353346567931788  0.0000
  O1     O1        0.867628531847709    0.079153343094712    0.600043168757007  0.0000
  O1     O1        0.618005762477283    0.840827824587143    0.585122027503526  0.0000
  O1     O1        0.913345722261120    0.739477916883946    0.600856249259978  0.0000
  O3     O3        0.580710021923702    0.198478029654100    0.620085820101011  0.0000
  O3     O3        0.120428698443146    0.838865646031889    0.355180556297302  0.0000
  O1     O1        0.362205409130779    0.093218896199065    0.351669236669252  0.0000
  O1     O1        0.023144184758067    0.993426549178048    0.533263804599333  0.0000
  O1     O1        0.518361379577809    0.003285220863667    0.416140974170489  0.0000
  O1     O1        0.970801145746224    0.959838003548514    0.287468318584522  0.0000
  O1     O1        0.462724404593695    0.970839303117757    0.167258029007586  0.0000
  O3     O3        0.968472550154332    0.967183876769209    0.786856030077754  0.0000
  O1     O1        0.466829535952684    0.950758233424471    0.658012820076723  0.0000
  O1     O1        0.569710664329521    0.221373740545828    0.093413381022150  0.0000
  O1     O1        0.908468686317752    0.745604910377075    0.099526659617580  0.0000
  O1     O1        0.359059958074109    0.094382160867020    0.835531430736070  0.0000
  O3     O3        0.106478112234201    0.868371013751646    0.859178177623928  0.0000
  O1     O1        0.404671105679117    0.749380784475036    0.852685027263060  0.0000
  O3     O3        0.068570107610605    0.198297315173308    0.856094017879338  0.0000
  O1     O1        0.612882099412172    0.873569402111114    0.094561586017513  0.0000
  O1     O1        0.862647102594503    0.092530858946243    0.113541805748070  0.0000
  O1     O1        0.510322764985863    0.006237788096966    0.909823667331644  0.0000
  O3     O3        0.012514844962042    0.000326321834770    0.030500041929903  0.0000
  O2     O2        0.151075568681415    0.508092946063641    0.304078204323964  0.0000
  O1     O1        0.337130236704784    0.435369788807601    0.319161194329746  0.0000
  O1     O1        0.838357025696022    0.424145628091589    0.630751806553680  0.0000
  O3     O3        0.654111143183396    0.492307411142833    0.633550908871456  0.0000
  O3     O3        0.220009971342542    0.213419967588223    0.248296573890199  0.0000
  O3     O3        0.252340792381077    0.739895729696139    0.261221671961642  0.0000
  O3     O3        0.722078423224374    0.197997644676044    0.693284463449733  0.0000
  O1     O1        0.761625504475423    0.737898136429636    0.684390817873538  0.0000
  O3     O3        0.104100411457559    0.323951864819722    0.108386833881202  0.0000
  O1     O1        0.369843179000613    0.630205294828678    0.100741084448162  0.0000
  O1     O1        0.848168783937879    0.213345632906095    0.855400433448854  0.0000
  O1     O1        0.632028411555907    0.738952691717755    0.842123729696437  0.0000
  O1     O1        0.876041214543135    0.615898275556051    0.849463761230024  0.0000
  O3     O3        0.616453905936492    0.342607805213925    0.844978543227131  0.0000
  O3     O3        0.130244326943393    0.733232103028464    0.114135734304836  0.0000
  O1     O1        0.348545876519237    0.221602468763290    0.093570834124073  0.0000
  O1     O1        0.649518968290864    0.528372276936186    0.066425007633240  0.0000
  O1     O1        0.828199272681238    0.441360996251521    0.068399754338854  0.0000
  O1     O1        0.325887589061650    0.443929126970648    0.881356925977631  0.0000
  O1     O1        0.139720665964306    0.519691968168223    0.891061604603730  0.0000
  O1     O1        0.720293008963447    0.200468910403609    0.019444291210774  0.0000
  O1     O1        0.759746264970027    0.760737600561289    0.003272111315176  0.0000
  O1     O1        0.218018625478243    0.204604891730703    0.937577075424466  0.0000
  O1     O1        0.252667432392666    0.758261687254743    0.939027108182618  0.0000
