data_c00564.vasp
_audit_creation_method             Generated by GULP
_audit_author_name                 Salvador R. G. Balestra
_symmetry_space_group_name_H-M     'P 1             '
_symmetry_Int_Tables_number        1

loop_
_symmetry_equiv_pos_site_id
_symmetry_equiv_pos_as_xyz
_cell_length_a                       17.6082
_cell_length_b                        7.8062
_cell_length_c                       10.2300
_cell_angle_alpha                   89.9848
_cell_angle_beta                    89.7124
_cell_angle_gamma                   91.1173

loop_
_atom_site_label
_atom_site_type_symbol
_atom_site_fract_x
_atom_site_fract_y
_atom_site_fract_z
_atom_site_charge
  Ge     Ge        0.052090000000021    0.000000000000000    0.372269999999958  0.0000
  Ge     Ge        0.441283019414864    0.050365976402858    0.338363916909438  0.0000
  Ge     Ge        0.946727108551571    0.049122776239122    0.625261631777437  0.0000
  Ge     Ge        0.549215502458411    0.997281206083522    0.587241788353097  0.0000
  Ge     Ge        0.537630155855135    0.986836611856434    0.072994604632767  0.0000
  Ge     Ge        0.940245056425772    0.049735391697889    0.128515885277503  0.0000
  Ge     Ge        0.167197620412086    0.295667374715074    0.261927125768100  0.0000
  Ge     Ge        0.319905563746404    0.770474663097939    0.253429341615356  0.0000
  Ge     Ge        0.848571350589704    0.367679972397811    0.688845490186820  0.0000
  Ge     Ge        0.820366201702939    0.768898874018699    0.697209483803960  0.0000
  Ge     Ge        0.667159727324333    0.292746481070465    0.690001351950201  0.0000
  Ge     Ge        0.348682092035916    0.368155428945832    0.260503632219796  0.0000
  Ge     Ge        0.665168827321353    0.271052463143495    0.005690847478530  0.0000
  Ge     Ge        0.817909472697493    0.764953620336932    0.016322445989854  0.0000
  Ge     Ge        0.344381948110714    0.350392207326585    0.944107725157193  0.0000
  Ge     Ge        0.141456399690335    0.681738227505199    0.938175801615563  0.0000
  Ge     Ge        0.321857642652221    0.758406450145896    0.934959060327127  0.0000
  Ge     Ge        0.161170674955548    0.277381734204758    0.948375390668429  0.0000
  Ge     Ge        0.640432028517506    0.675491821650430    0.013519381377117  0.0000
  Ge     Ge        0.844761760861503    0.358537061297484    0.007892324030838  0.0000
  Si     Si        0.437378142605761    0.044717235619538    0.821999164183344  0.0000
  Si     Si        0.042751498832407    0.989159862815323    0.880119156761182  0.0000
  Si     Si        0.644128518400846    0.688169226023541    0.700124721451328  0.0000
  Si     Si        0.143825396822296    0.691044316976160    0.249931441983779  0.0000
  O1     O1        0.121552842126025    0.155460811461064    0.364992554790486  0.0000
  O1     O1        0.363088882838984    0.915139880555494    0.353736867812039  0.0000
  O1     O1        0.915624234351626    0.254134732068183    0.604507525278803  0.0000
  O3     O3        0.581193843867082    0.796197771761712    0.625423266032348  0.0000
  O1     O1        0.868222678432105    0.916946416468512    0.605000198562882  0.0000
  O1     O1        0.618060989268159    0.153417973237090    0.590985753418877  0.0000
  O3     O3        0.081757474177750    0.798437248326805    0.327438712812291  0.0000
  O1     O1        0.411275619539049    0.256836361787455    0.355247054399570  0.0000
  O1     O1        0.022288929878705    0.993364284871098    0.533021600437628  0.0000
  O1     O1        0.517318691476291    0.993664757633427    0.427731488233647  0.0000
  O1     O1        0.972484789868107    0.050906137953101    0.286162734336493  0.0000
  O1     O1        0.464828701018148    0.028551839859889    0.173975154926341  0.0000
  O3     O3        0.972474644176433    0.027691813754502    0.789348175980698  0.0000
  O3     O3        0.467501343946607    0.045568958867018    0.673600437762637  0.0000
  O1     O1        0.613158096763821    0.127255969893485    0.095630797285611  0.0000
  O1     O1        0.865655938841434    0.906947835995289    0.114077841633138  0.0000
  O3     O3        0.408456208001367    0.233856493080676    0.854942131494265  0.0000
  O3     O3        0.074715287117004    0.799156712590263    0.856102426243211  0.0000
  O3     O3        0.369027339107016    0.906824474777226    0.838461743444400  0.0000
  O3     O3        0.110959254529871    0.127835276146488    0.857943819320492  0.0000
  O1     O1        0.569973075655545    0.781247155624083    0.092228197882126  0.0000
  O1     O1        0.911841172026556    0.253628436953233    0.094901403097933  0.0000
  O3     O3        0.508540872369309    0.997330484360651    0.911165727078249  0.0000
  O3     O3        0.016291180660228    0.994252619214576    0.031089782725669  0.0000
  O3     O3        0.155819803170757    0.506246257148749    0.315005115587153  0.0000
  O1     O1        0.338833825571199    0.571165594028741    0.316776305553309  0.0000
  O1     O1        0.839404975422003    0.570973825254046    0.631271710333793  0.0000
  O3     O3        0.655169271758862    0.502503358902391    0.635647225508784  0.0000
  O1     O1        0.262423010330100    0.258999594941524    0.259526411138558  0.0000
  O3     O3        0.222653350395687    0.800190243216969    0.249365441041234  0.0000
  O1     O1        0.762738830653162    0.257145364881118    0.683690519664075  0.0000
  O3     O3        0.722858633760649    0.797717223537324    0.695340192451010  0.0000
  O1     O1        0.130594809788755    0.265594739194441    0.108199090358704  0.0000
  O1     O1        0.351918157167403    0.779155117000627    0.093755915137466  0.0000
  O1     O1        0.875219264436362    0.383896978340738    0.849772281673217  0.0000
  O3     O3        0.619520248357115    0.652076346058132    0.848428133323011  0.0000
  O1     O1        0.848968804787900    0.783176605389417    0.857365706721667  0.0000
  O1     O1        0.634668743401008    0.259309094615353    0.846007973430257  0.0000
  O3     O3        0.118019047633970    0.655948898322018    0.102101247326268  0.0000
  O1     O1        0.378399227095226    0.374748167872293    0.099696436894427  0.0000
  O1     O1        0.650920292404374    0.472927590689682    0.070662494550865  0.0000
  O1     O1        0.830143959112565    0.558094128705884    0.070981118730340  0.0000
  O1     O1        0.335750262915357    0.552499251794732    0.880374879782650  0.0000
  O1     O1        0.146311966920476    0.477164854341632    0.880762035043360  0.0000
  O1     O1        0.761175898750807    0.238351761177709    0.008553096085459  0.0000
  O1     O1        0.722022108518158    0.799215927125255    0.024010705449240  0.0000
  O1     O1        0.257379396097659    0.245793139239555    0.946140691958925  0.0000
  O1     O1        0.226165735722135    0.792410983610996    0.926765602639786  0.0000
