data_c00568.vasp
_audit_creation_method             Generated by GULP
_audit_author_name                 Salvador R. G. Balestra
_symmetry_space_group_name_H-M     'P 1             '
_symmetry_Int_Tables_number        1

loop_
_symmetry_equiv_pos_site_id
_symmetry_equiv_pos_as_xyz
_cell_length_a                       17.4487
_cell_length_b                        7.9196
_cell_length_c                       10.3075
_cell_angle_alpha                   92.0934
_cell_angle_beta                    90.2780
_cell_angle_gamma                   91.1430

loop_
_atom_site_label
_atom_site_type_symbol
_atom_site_fract_x
_atom_site_fract_y
_atom_site_fract_z
_atom_site_charge
  Ge     Ge        0.052090000000021    0.000000000000000    0.372269999999958  0.0000
  Ge     Ge        0.431138065714742    0.016896614219543    0.370199301600410  0.0000
  Ge     Ge        0.942600049200988    0.990253259269248    0.619888275847918  0.0000
  Ge     Ge        0.536154995058951    0.947522442881694    0.619309602938502  0.0000
  Ge     Ge        0.542402870708906    0.962356122078769    0.122002802619514  0.0000
  Ge     Ge        0.937587953631902    0.014066394535083    0.124019163991848  0.0000
  Ge     Ge        0.151766832816515    0.312903624918292    0.273058208320111  0.0000
  Ge     Ge        0.842979578791408    0.305728019410843    0.691999341211623  0.0000
  Ge     Ge        0.636010498394311    0.636188504532011    0.690289050382884  0.0000
  Ge     Ge        0.819449574483176    0.706610732633462    0.692590595653017  0.0000
  Ge     Ge        0.659525390363600    0.235922320861568    0.691563613850441  0.0000
  Ge     Ge        0.341411189512032    0.336832684434578    0.268285425353613  0.0000
  Ge     Ge        0.661634898756903    0.244235511084155    0.007218392976033  0.0000
  Ge     Ge        0.817936672648894    0.721846108077953    0.007678334837233  0.0000
  Ge     Ge        0.336943572986978    0.299212000878007    0.952368761880820  0.0000
  Ge     Ge        0.144926413154194    0.674394178674853    0.941662282184977  0.0000
  Ge     Ge        0.329311210077862    0.704083177259502    0.941867417800716  0.0000
  Ge     Ge        0.150923350513401    0.268195565886476    0.957864491652155  0.0000
  Ge     Ge        0.634523030267311    0.643929951067579    0.005732734937005  0.0000
  Ge     Ge        0.845062358766041    0.321609772682641    0.007786600386544  0.0000
  Si     Si        0.439323584498270    0.000332775641478    0.873910155583103  0.0000
  Si     Si        0.040925939923975    0.966351809880867    0.875896049457710  0.0000
  Si     Si        0.330328109379851    0.718501953715968    0.242142103621691  0.0000
  Si     Si        0.147795264341782    0.694948726256215    0.242193130524954  0.0000
  O1     O1        0.099054330376732    0.191470867247993    0.374449019747136  0.0000
  O3     O3        0.353910797703488    0.884279662405970    0.325056471206457  0.0000
  O1     O1        0.905431886353044    0.186716238254885    0.600545362380965  0.0000
  O1     O1        0.572036366347615    0.748509168811891    0.601774971815289  0.0000
  O1     O1        0.870928717813507    0.840117875469141    0.597638321400146  0.0000
  O1     O1        0.608489763443854    0.093441138552452    0.594830485618191  0.0000
  O3     O3        0.120277960250127    0.853337665852626    0.326363456976984  0.0000
  O1     O1        0.399714447206684    0.219438403001247    0.362239663807554  0.0000
  O1     O1        0.020874520247786    0.956820040770831    0.525468208013311  0.0000
  O1     O1        0.456960289449463    0.976832429027767    0.526538805711291  0.0000
  O1     O1        0.970437575794139    0.997033654450351    0.280129973978405  0.0000
  O1     O1        0.511161903768669    0.979519128499487    0.279578300934638  0.0000
  O3     O3        0.969016955618356    0.980027177352811    0.782742667591118  0.0000
  O3     O3        0.511389331289751    0.983952243746639    0.781667466268604  0.0000
  O1     O1        0.618642771573745    0.099237952307047    0.102905612778543  0.0000
  O1     O1        0.861488257405148    0.875998259256706    0.103376319207830  0.0000
  O3     O3        0.391723314585691    0.169680675254916    0.853185498706938  0.0000
  O3     O3        0.085596836504148    0.792645940529354    0.847587356149837  0.0000
  O3     O3        0.384150227891693    0.836167080878389    0.849390931438445  0.0000
  O3     O3        0.098847755957572    0.125959730345920    0.861125074595728  0.0000
  O1     O1        0.569248604183335    0.757571759884228    0.093693963458220  0.0000
  O1     O1        0.909902530751068    0.217082556465973    0.098904654521720  0.0000
  O3     O3        0.467509117080140    0.016465343929952    0.023057384248442  0.0000
  O3     O3        0.013340810962254    0.964040377910030    0.024401017378881  0.0000
  O3     O3        0.131531507149091    0.522312901139947    0.314320442094495  0.0000
  O3     O3        0.354485212258458    0.550262529911816    0.312917336716167  0.0000
  O1     O1        0.832070596551288    0.502316247410846    0.633052179995564  0.0000
  O1     O1        0.646574480860588    0.434232193487825    0.630825085098027  0.0000
  O1     O1        0.247569865851141    0.274987282482128    0.287921952350020  0.0000
  O2     O2        0.239199681454570    0.700079164220979    0.211807152398846  0.0000
  O1     O1        0.755939930714472    0.197991444624033    0.691334210653463  0.0000
  O1     O1        0.722937678534193    0.744501964717856    0.689950805888458  0.0000
  O1     O1        0.120798128656992    0.267411421049796    0.116581956392260  0.0000
  O3     O3        0.366449422529603    0.725740833760803    0.099290921470341  0.0000
  O1     O1        0.875492292639323    0.327927865192042    0.849638919925690  0.0000
  O1     O1        0.604005280537805    0.624631956356434    0.847123099389895  0.0000
  O1     O1        0.850853761018919    0.726457470569347    0.851048853137398  0.0000
  O1     O1        0.628804633657283    0.229464484614833    0.849853593621672  0.0000
  O3     O3        0.110291649153039    0.686615659488707    0.100182282909943  0.0000
  O1     O1        0.369559104719326    0.312408584269271    0.109944383881697  0.0000
  O1     O1        0.644725080561912    0.447291212433440    0.066299540132065  0.0000
  O1     O1        0.834999318659466    0.524873172188762    0.066950726092851  0.0000
  O1     O1        0.336942710319527    0.496925736627048    0.889730630313754  0.0000
  O1     O1        0.142802345119915    0.465552660300542    0.894260557327390  0.0000
  O1     O1        0.758634827585408    0.213642164063559    0.008443447443176  0.0000
  O1     O1        0.721023268795450    0.752127743372102    0.007147262789604  0.0000
  O1     O1        0.245579101689062    0.216120589000121    0.957910389708230  0.0000
  O1     O1        0.235497257738223    0.759428868657734    0.928809803567598  0.0000
