data_c00598.vasp
_audit_creation_method             Generated by GULP
_audit_author_name                 Salvador R. G. Balestra
_symmetry_space_group_name_H-M     'P 1             '
_symmetry_Int_Tables_number        1

loop_
_symmetry_equiv_pos_site_id
_symmetry_equiv_pos_as_xyz
_cell_length_a                       17.5977
_cell_length_b                        7.8303
_cell_length_c                       10.2452
_cell_angle_alpha                   90.1205
_cell_angle_beta                    90.2738
_cell_angle_gamma                   91.5392

loop_
_atom_site_label
_atom_site_type_symbol
_atom_site_fract_x
_atom_site_fract_y
_atom_site_fract_z
_atom_site_charge
  Ge     Ge        0.052090000000021    0.000000000000000    0.372269999999958  0.0000
  Ge     Ge        0.443986393362960    0.060833189821035    0.380229340486729  0.0000
  Ge     Ge        0.946155536296778    0.040552231076521    0.628785022004654  0.0000
  Ge     Ge        0.550175722920270    0.997954071676291    0.629538446140014  0.0000
  Ge     Ge        0.553913012078561    0.005027403194332    0.136294624060301  0.0000
  Ge     Ge        0.448220119870998    0.062264429140642    0.884206447928644  0.0000
  Ge     Ge        0.169412685027793    0.298887264258248    0.270055670449380  0.0000
  Ge     Ge        0.323021421722355    0.773919298624453    0.263874123351115  0.0000
  Ge     Ge        0.854835786858406    0.362820783743276    0.704799509094405  0.0000
  Ge     Ge        0.649121445731775    0.683706788431576    0.696133074811096  0.0000
  Ge     Ge        0.672865426951073    0.283377592856856    0.705383981854415  0.0000
  Ge     Ge        0.350860631067926    0.374157551567093    0.265633972736167  0.0000
  Ge     Ge        0.674426568001762    0.291118901272969    0.020651797013342  0.0000
  Ge     Ge        0.829097258649070    0.772144545040645    0.014044410432067  0.0000
  Ge     Ge        0.344613723051566    0.369722950114803    0.945209585152205  0.0000
  Ge     Ge        0.142900104899703    0.692210988476002    0.950073253379994  0.0000
  Ge     Ge        0.322827252488536    0.772720822885595    0.947155618283007  0.0000
  Ge     Ge        0.163654882039342    0.288097696159501    0.954001261104874  0.0000
  Ge     Ge        0.647944605067366    0.694202712442759    0.015819969813625  0.0000
  Ge     Ge        0.857617960825094    0.369012671804753    0.017462803992546  0.0000
  Si     Si        0.945793829396589    0.060796449255713    0.129138527788293  0.0000
  Si     Si        0.044932421292233    0.999923367716283    0.885278104366131  0.0000
  Si     Si        0.826257273431515    0.756741266405655    0.701635767914485  0.0000
  Si     Si        0.146117398540360    0.692831306730662    0.260323107503381  0.0000
  O1     O1        0.120779688270368    0.157791594762240    0.367932645374793  0.0000
  O1     O1        0.365117055257499    0.931620713463755    0.355416580159984  0.0000
  O1     O1        0.912800982398732    0.242989961679688    0.608420663133041  0.0000
  O1     O1        0.585079838855890    0.797366997901397    0.607484150558293  0.0000
  O3     O3        0.871882724349324    0.891562120049370    0.613102156344558  0.0000
  O1     O1        0.624812704331851    0.140741626042183    0.607318730642888  0.0000
  O3     O3        0.085068213635963    0.799480391420712    0.338650777745346  0.0000
  O1     O1        0.419923228443687    0.267203421373631    0.347733279511169  0.0000
  O1     O1        0.019360417146686    0.994060231485013    0.530028108129538  0.0000
  O1     O1        0.471036497030253    0.041343380318017    0.541455549585034  0.0000
  O3     O3        0.973510768328598    0.042571110385979    0.276940458311236  0.0000
  O1     O1        0.522901926030243    0.002128278146040    0.295326417946550  0.0000
  O3     O3        0.975791983729801    0.031949592235460    0.790808248006344  0.0000
  O1     O1        0.524816407289177    0.019307727183668    0.792046718535116  0.0000
  O1     O1        0.630510290651274    0.143062638964621    0.118895231705154  0.0000
  O3     O3        0.874958606202584    0.932859653215966    0.099803639202135  0.0000
  O1     O1        0.409400509736456    0.259191451686995    0.857522848420046  0.0000
  O3     O3        0.075892682817311    0.809409621484134    0.868728776666710  0.0000
  O1     O1        0.375996929018291    0.912560069982411    0.857223030281541  0.0000
  O3     O3        0.112966382886739    0.138038603205124    0.862859052582633  0.0000
  O1     O1        0.579508669269325    0.801007553921579    0.097459734715456  0.0000
  O3     O3        0.921276346834144    0.254858961913726    0.109536599731084  0.0000
  O1     O1        0.477208162321868    0.065120201881030    0.045364597770924  0.0000
  O2     O2        0.016592784247088    0.015374208207220    0.035796678741246  0.0000
  O3     O3        0.157728376100101    0.508106704197699    0.323900804257672  0.0000
  O1     O1        0.343156636123883    0.577291691600308    0.327194280832636  0.0000
  O3     O3        0.840363486419545    0.566246076966393    0.646589480205304  0.0000
  O1     O1        0.656584254292622    0.482019334771265    0.638536666059516  0.0000
  O1     O1        0.265005257568303    0.263922198479070    0.276629674047035  0.0000
  O3     O3        0.225561980198522    0.800369076243026    0.260132737484777  0.0000
  O1     O1        0.768529111039116    0.253849111982019    0.710978641642749  0.0000
  O3     O3        0.736940728826236    0.791986638464136    0.696689850138347  0.0000
  O1     O1        0.136065250385027    0.272370176291765    0.114062468064671  0.0000
  O1     O1        0.354969183252645    0.788755994021139    0.106150498793882  0.0000
  O1     O1        0.890803350366473    0.376933236993402    0.860308427073266  0.0000
  O1     O1        0.620205430486879    0.673202305554853    0.855775258270096  0.0000
  O3     O3        0.854884488674386    0.768020696805342    0.851302657872962  0.0000
  O1     O1        0.639673444573109    0.272585077663545    0.863704490311299  0.0000
  O3     O3        0.118896398624773    0.661761289184907    0.112297526196454  0.0000
  O1     O1        0.374477098965492    0.394807910743940    0.104494687020672  0.0000
  O1     O1        0.658144456154564    0.493561868751223    0.078677512183383  0.0000
  O1     O1        0.849451274517176    0.573567232954622    0.075636336980407  0.0000
  O1     O1        0.332868581483686    0.569673190066858    0.884518498979075  0.0000
  O1     O1        0.148659249205206    0.489322621849082    0.890265921778767  0.0000
  O1     O1        0.770676742401158    0.264595459117466    0.018115044820267  0.0000
  O1     O1        0.733698991642950    0.805374420159482    0.025508667211979  0.0000
  O1     O1        0.259368332785740    0.254976496401812    0.946719332444650  0.0000
  O1     O1        0.227007904127971    0.807435825336981    0.941956123933448  0.0000
