data_c00518.vasp
_audit_creation_method             Generated by GULP
_audit_author_name                 Salvador R. G. Balestra
_symmetry_space_group_name_H-M     'P 1             '
_symmetry_Int_Tables_number        1

loop_
_symmetry_equiv_pos_site_id
_symmetry_equiv_pos_as_xyz
_cell_length_a                       17.0692
_cell_length_b                        7.8411
_cell_length_c                       10.7243
_cell_angle_alpha                   89.2678
_cell_angle_beta                    92.0670
_cell_angle_gamma                   88.9308

loop_
_atom_site_label
_atom_site_type_symbol
_atom_site_fract_x
_atom_site_fract_y
_atom_site_fract_z
_atom_site_charge
  Ge     Ge        0.052090000000021    0.000000000000000    0.372269999999958  0.0000
  Ge     Ge        0.446446463013618    0.008489552405071    0.335342208733043  0.0000
  Ge     Ge        0.947777392591105    0.972713264062475    0.625404213863242  0.0000
  Ge     Ge        0.538522737170240    0.013104608948638    0.601572287912240  0.0000
  Ge     Ge        0.556171822835132    0.960295744473191    0.083436972822030  0.0000
  Ge     Ge        0.934246937099611    0.939903719842852    0.124625075698101  0.0000
  Ge     Ge        0.434832633133991    0.995937232247302    0.848477643493371  0.0000
  Ge     Ge        0.159792868666809    0.310436588053231    0.286387008134511  0.0000
  Ge     Ge        0.826272575450135    0.249416174682304    0.695177516364643  0.0000
  Ge     Ge        0.664091851238874    0.723077584115797    0.728502423922129  0.0000
  Ge     Ge        0.849180577210997    0.655677694876501    0.727846601932006  0.0000
  Ge     Ge        0.634831000047651    0.322927306779014    0.691539005600025  0.0000
  Ge     Ge        0.344651465329098    0.339087764610206    0.280965972510200  0.0000
  Ge     Ge        0.853854659862918    0.605221334708425    0.029730551020301  0.0000
  Ge     Ge        0.342871562060438    0.314930510593316    0.973831746232635  0.0000
  Ge     Ge        0.127185964158877    0.675810109776929    0.965199816112620  0.0000
  Ge     Ge        0.320441929516794    0.718946950771516    0.952822458440863  0.0000
  Ge     Ge        0.157066886285714    0.271152906711417    0.981443228552625  0.0000
  Ge     Ge        0.669235828263664    0.655088773067904    0.032109340534842  0.0000
  Ge     Ge        0.831037062275696    0.212794159649656    0.987782971021526  0.0000
  Si     Si        0.035923062085907    0.000025272980418    0.885650861563666  0.0000
  Si     Si        0.333928694455504    0.728579787531405    0.241922953100445  0.0000
  Si     Si        0.147616451478076    0.701384799100291    0.251625613818715  0.0000
  Si     Si        0.643485903687016    0.281894767842448    0.979432682867830  0.0000
  O1     O1        0.099055658312749    0.190214237329292    0.373464518736863  0.0000
  O3     O3        0.365694049443879    0.871786985223348    0.332507067582556  0.0000
  O1     O1        0.872536916382197    0.117573094334795    0.592305588211743  0.0000
  O1     O1        0.617861883009746    0.894369815714176    0.657534585250353  0.0000
  O1     O1        0.914626573793877    0.771241271749508    0.646037158747927  0.0000
  O1     O1        0.571184451544237    0.219741090037675    0.593871821088119  0.0000
  O3     O3        0.122558216326122    0.841700569120189    0.347632818881896  0.0000
  O1     O1        0.410982088650185    0.210033623264427    0.363290216269167  0.0000
  O1     O1        0.017363124844713    0.963520483190302    0.516175211521714  0.0000
  O1     O1        0.510162937396085    0.948538930413496    0.454664271277506  0.0000
  O1     O1        0.974866064240009    0.993215710321819    0.265821299608624  0.0000
  O1     O1        0.489844115701066    0.999689437831512    0.194728636006614  0.0000
  O3     O3        0.991255774000848    0.057242115551194    0.760071781616703  0.0000
  O1     O1        0.459896575250200    0.998563607245393    0.695811284823290  0.0000
  O3     O3        0.613897796328176    0.140732838728469    0.072957720186347  0.0000
  O1     O1        0.919763082524146    0.726720619243445    0.117449699445088  0.0000
  O1     O1        0.412024346575985    0.195978375821995    0.901580426466106  0.0000
  O3     O3        0.059417353916406    0.798202743028753    0.878713584259208  0.0000
  O1     O1        0.354072471878264    0.867675718325861    0.852969186878933  0.0000
  O3     O3        0.115468653074159    0.103974388871765    0.903266223130672  0.0000
  O1     O1        0.616872324355893    0.791459695485764    0.123417556673741  0.0000
  O1     O1        0.846391964942412    0.054683133138199    0.096127228463784  0.0000
  O1     O1        0.509371407183412    0.912414949070582    0.943719297137250  0.0000
  O3     O3        0.982936341270449    0.039268227114172    0.003549570324397  0.0000
  O3     O3        0.117840557796857    0.514525213002051    0.284029098227197  0.0000
  O3     O3        0.376679704619401    0.548140845083183    0.276632819237997  0.0000
  O1     O1        0.870422648139098    0.443023451781821    0.709853505902362  0.0000
  O1     O1        0.615190689607175    0.537277272251117    0.695594571656617  0.0000
  O1     O1        0.254435663348873    0.314991843777070    0.345181824872793  0.0000
  O2     O2        0.242083425798540    0.677792026713056    0.246008592600190  0.0000
  O1     O1        0.729933095178360    0.286686477086251    0.650109287439714  0.0000
  O1     O1        0.756244896459687    0.703972583710472    0.670123522173815  0.0000
  O1     O1        0.161558559614313    0.227689535304936    0.138859686754872  0.0000
  O3     O3        0.345101296202887    0.793250757227864    0.101431888100336  0.0000
  O1     O1        0.836335286020224    0.143429514859448    0.837255337592457  0.0000
  O1     O1        0.674644845634701    0.749859876509362    0.886406190745947  0.0000
  O1     O1        0.854280931089280    0.700691532600435    0.884123353902693  0.0000
  O3     O3        0.615920555573601    0.235397808007432    0.838877483165685  0.0000
  O3     O3        0.113969889446603    0.757443475646883    0.114688418631913  0.0000
  O1     O1        0.341316779398092    0.266725114109559    0.130262482201944  0.0000
  O3     O3        0.614841021318100    0.470076735509729    0.018716598502384  0.0000
  O1     O1        0.883034007978086    0.395880790491853    0.024801743967950  0.0000
  O1     O1        0.365484277276564    0.523373511354683    0.944082132228129  0.0000
  O1     O1        0.106785797950631    0.463774351096750    0.959309275130223  0.0000
  O3     O3        0.737186707539902    0.307523448421626    0.981706870036174  0.0000
  O1     O1        0.762930704190469    0.630951955864060    0.093293966656470  0.0000
  O1     O1        0.247993120529678    0.283945923617352    0.920264476033576  0.0000
  O1     O1        0.221867690308205    0.697128628386097    0.923027978932509  0.0000
