data_c00570.vasp
_audit_creation_method             Generated by GULP
_audit_author_name                 Salvador R. G. Balestra
_symmetry_space_group_name_H-M     'P 1             '
_symmetry_Int_Tables_number        1

loop_
_symmetry_equiv_pos_site_id
_symmetry_equiv_pos_as_xyz
_cell_length_a                       17.7511
_cell_length_b                        7.8557
_cell_length_c                       10.4836
_cell_angle_alpha                   89.5279
_cell_angle_beta                    90.6102
_cell_angle_gamma                   89.6442

loop_
_atom_site_label
_atom_site_type_symbol
_atom_site_fract_x
_atom_site_fract_y
_atom_site_fract_z
_atom_site_charge
  Ge     Ge        0.052090000000021    0.000000000000000    0.372269999999958  0.0000
  Ge     Ge        0.452456980224049    0.962440095156078    0.341295203023972  0.0000
  Ge     Ge        0.954245729713079    0.995002508394736    0.633722560880277  0.0000
  Ge     Ge        0.553222391962995    0.966142778782302    0.599734152052737  0.0000
  Ge     Ge        0.553984807908509    0.956442660150309    0.086838521290910  0.0000
  Ge     Ge        0.442736260135565    0.954730404316813    0.837853798961632  0.0000
  Ge     Ge        0.151362703319523    0.308339088075960    0.272452410384241  0.0000
  Ge     Ge        0.351368339177911    0.652902202741671    0.257275855450394  0.0000
  Ge     Ge        0.852739466215017    0.304283011697459    0.710538277026359  0.0000
  Ge     Ge        0.654226335367409    0.654422850872192    0.716612963400895  0.0000
  Ge     Ge        0.833170854597057    0.712384924765815    0.714254258354491  0.0000
  Ge     Ge        0.674286670212775    0.247756484879422    0.710995840511201  0.0000
  Ge     Ge        0.172114772666465    0.712819993566828    0.261931792593078  0.0000
  Ge     Ge        0.329819281777522    0.243886561140017    0.270701705563871  0.0000
  Ge     Ge        0.675787303015718    0.238736763380395    0.019498761127130  0.0000
  Ge     Ge        0.837896708130883    0.687698204015208    0.023814793528103  0.0000
  Ge     Ge        0.326577738218457    0.236349354016671    0.961630990176572  0.0000
  Ge     Ge        0.163950253911042    0.686520638888114    0.953431758075350  0.0000
  Ge     Ge        0.347584737779594    0.640972780135107    0.945260996327582  0.0000
  Ge     Ge        0.655869792792770    0.639160873158482    0.029677310068456  0.0000
  Si     Si        0.945707892152176    0.978345099237709    0.127396669601151  0.0000
  Si     Si        0.051448478645991    0.980835257633311    0.893818505307868  0.0000
  Si     Si        0.147661804827515    0.292330464253842    0.969435683274557  0.0000
  Si     Si        0.854164749588914    0.289011226740329    0.012933878025925  0.0000
  O1     O1        0.085349363599777    0.203093217771183    0.359326262695451  0.0000
  O1     O1        0.414382060822104    0.762342296033931    0.349135994851353  0.0000
  O1     O1        0.915813474531630    0.195240291591341    0.619739811759008  0.0000
  O1     O1        0.586210363880879    0.765506641588298    0.634604404260343  0.0000
  O1     O1        0.883738230528128    0.846860910211999    0.620610213692950  0.0000
  O1     O1        0.622463179541791    0.113770173507611    0.618357630284979  0.0000
  O1     O1        0.124095065094221    0.858985956248587    0.348588445375380  0.0000
  O1     O1        0.382990464516548    0.112040189099799    0.366257067901258  0.0000
  O1     O1        0.022689764910277    0.962827531103002    0.525513998221657  0.0000
  O1     O1        0.527526702156899    0.978773416938714    0.441388903928768  0.0000
  O3     O3        0.975418540159927    0.976304679611372    0.271368928090125  0.0000
  O1     O1        0.482662529183724    0.998482002638129    0.187363762667481  0.0000
  O3     O3        0.986804272873697    0.976572027204483    0.789726709165172  0.0000
  O1     O1        0.472765479066260    0.999560027320046    0.686472757513453  0.0000
  O1     O1        0.630199838441162    0.090181631118206    0.106795226431934  0.0000
  O3     O3        0.887032703811679    0.825022890587975    0.120197378450121  0.0000
  O1     O1        0.366443851905776    0.082148200088787    0.871975540090008  0.0000
  O3     O3        0.111089324008925    0.831155381244850    0.864990809157035  0.0000
  O1     O1        0.409817788185087    0.749980915877047    0.852740076231563  0.0000
  O2     O2        0.092994151791107    0.164165056437859    0.892663681304779  0.0000
  O1     O1        0.590745536500185    0.755416513015039    0.111199926387176  0.0000
  O2     O2        0.908142010609211    0.161551998874064    0.094026349149299  0.0000
  O1     O1        0.519857577510465    0.987267011920074    0.933963247694136  0.0000
  O2     O2        0.016101944193575    0.945576597232996    0.033700123545522  0.0000
  O1     O1        0.161982800073390    0.510982122706261    0.326321291952429  0.0000
  O1     O1        0.341200769090971    0.452348420832963    0.316975941237253  0.0000
  O1     O1        0.842629255939209    0.507916330649246    0.656955467701194  0.0000
  O1     O1        0.664536331280694    0.454325415957721    0.655972584327992  0.0000
  O1     O1        0.235724617214883    0.199525313711841    0.281537950077499  0.0000
  O1     O1        0.266147244224157    0.759838579428989    0.258541457837586  0.0000
  O1     O1        0.768322215545932    0.197810888687922    0.705443647139746  0.0000
  O1     O1        0.738733143431991    0.761404707489231    0.711549275752767  0.0000
  O3     O3        0.121111105079408    0.313723517512612    0.114164109457078  0.0000
  O1     O1        0.379946238435040    0.649895009444094    0.100761060383451  0.0000
  O3     O3        0.882849954371042    0.308575312367509    0.869296364123896  0.0000
  O1     O1        0.627001467834215    0.637745522598429    0.872463066085858  0.0000
  O1     O1        0.865489892280412    0.715724717345254    0.869725335300419  0.0000
  O1     O1        0.642585702454741    0.234985874378394    0.864768749982374  0.0000
  O1     O1        0.138163800150645    0.706994319953499    0.108765119258194  0.0000
  O1     O1        0.359789365128518    0.226860578697680    0.115556999593091  0.0000
  O1     O1        0.659569355077756    0.434955940977182    0.085913909951317  0.0000
  O3     O3        0.851548203663517    0.476440747158078    0.073194170112002  0.0000
  O1     O1        0.345298008355114    0.433043010701718    0.897386401184624  0.0000
  O3     O3        0.148577873218621    0.477633011731806    0.903376446981516  0.0000
  O3     O3        0.771836943349314    0.205141116369080    0.011527369687934  0.0000
  O1     O1        0.743658290045882    0.730727388177796    0.036045936889720  0.0000
  O3     O3        0.230315904679768    0.208732197996533    0.970992879264711  0.0000
  O1     O1        0.257981618101426    0.726340897423917    0.936967886508473  0.0000
