data_c00546.vasp
_audit_creation_method             Generated by GULP
_audit_author_name                 Salvador R. G. Balestra
_symmetry_space_group_name_H-M     'P 1             '
_symmetry_Int_Tables_number        1

loop_
_symmetry_equiv_pos_site_id
_symmetry_equiv_pos_as_xyz
_cell_length_a                       17.5067
_cell_length_b                        7.8209
_cell_length_c                       10.3479
_cell_angle_alpha                   89.3612
_cell_angle_beta                    90.6443
_cell_angle_gamma                   88.2399

loop_
_atom_site_label
_atom_site_type_symbol
_atom_site_fract_x
_atom_site_fract_y
_atom_site_fract_z
_atom_site_charge
  Ge     Ge        0.052090000000021    0.000000000000000    0.372269999999958  0.0000
  Ge     Ge        0.441233191992661    0.948440805084809    0.365375347570559  0.0000
  Ge     Ge        0.947498746507227    0.952568077465150    0.625264477528947  0.0000
  Ge     Ge        0.537617454834071    0.005963148831484    0.626311787818800  0.0000
  Ge     Ge        0.550489990533825    0.013887741075252    0.124777860529395  0.0000
  Ge     Ge        0.945541059395867    0.944537870163506    0.120910239981912  0.0000
  Ge     Ge        0.145223738821678    0.314844473176081    0.251643230995696  0.0000
  Ge     Ge        0.352928911158024    0.629628793894154    0.252778131704790  0.0000
  Ge     Ge        0.820299329868879    0.235009572203547    0.695315337563676  0.0000
  Ge     Ge        0.666628643911872    0.723375459271407    0.692387706857584  0.0000
  Ge     Ge        0.847641295647961    0.636707393871726    0.688234418558657  0.0000
  Ge     Ge        0.638506384746539    0.320299439784172    0.695835129328484  0.0000
  Ge     Ge        0.171440273084486    0.713489370820644    0.263302522324565  0.0000
  Ge     Ge        0.641249401761174    0.326900996493664    0.010025305702771  0.0000
  Ge     Ge        0.852730639867481    0.634171784641640    0.004344708079292  0.0000
  Ge     Ge        0.327670742689278    0.256438136748404    0.941797853173101  0.0000
  Ge     Ge        0.163364218313339    0.722060681651729    0.951382405308580  0.0000
  Ge     Ge        0.144528030944914    0.323360099888650    0.934295668225178  0.0000
  Ge     Ge        0.672190275774650    0.729078786401635    0.008208501053333  0.0000
  Ge     Ge        0.822469816088134    0.232796807880281    0.009725786654521  0.0000
  Si     Si        0.442220410902561    0.955496374205508    0.882799455961005  0.0000
  Si     Si        0.046777693502285    0.016560439794057    0.877395645676335  0.0000
  Si     Si        0.323735136732671    0.236290464063515    0.248890458576328  0.0000
  Si     Si        0.344797110725683    0.650563269882571    0.949341173408492  0.0000
  O1     O1        0.078616326116692    0.203175160295829    0.332540027862214  0.0000
  O1     O1        0.419486568911957    0.738794887094426    0.337591089526077  0.0000
  O1     O1        0.871068292589552    0.093062840542681    0.602844170353935  0.0000
  O1     O1        0.613174382285387    0.865138084025086    0.599972397262561  0.0000
  O1     O1        0.914843443087302    0.749687676859613    0.606308394684036  0.0000
  O1     O1        0.570679459144449    0.209362880581965    0.613439555653797  0.0000
  O1     O1        0.129147060559710    0.862406115270900    0.360329550893647  0.0000
  O3     O3        0.364602319685431    0.085391918206094    0.330297455121100  0.0000
  O1     O1        0.022530040384333    0.997285413463051    0.530169904245376  0.0000
  O1     O1        0.462191160914788    0.971968277729195    0.526570989564542  0.0000
  O1     O1        0.976189248904729    0.940790238184472    0.278787584245804  0.0000
  O1     O1        0.521387996713365    0.999309828263675    0.281926928828753  0.0000
  O3     O3        0.976789839914695    0.972809971077176    0.786460924852805  0.0000
  O3     O3        0.511207361172776    0.966256707406014    0.785816127844410  0.0000
  O1     O1        0.574558987214018    0.221495759085815    0.097255708535145  0.0000
  O1     O1        0.923117041053823    0.738855163398396    0.083774374366023  0.0000
  O3     O3        0.383278986114387    0.115250006921936    0.854873097109159  0.0000
  O3     O3        0.117253246711402    0.880170361839087    0.861151108255952  0.0000
  O2     O2        0.397834634853580    0.776745989851386    0.866820193437990  0.0000
  O3     O3        0.079058738447498    0.204326232404887    0.850264300872583  0.0000
  O1     O1        0.628167561635649    0.879738154402498    0.101784906227565  0.0000
  O1     O1        0.867515448480436    0.080932638050449    0.105547937980468  0.0000
  O3     O3        0.473661854692535    0.958333836457856    0.029022051508948  0.0000
  O3     O3        0.019649349380251    0.013396511374183    0.026059683209863  0.0000
  O1     O1        0.153883447614129    0.510867063917300    0.320144473197151  0.0000
  O3     O3        0.342079432041637    0.421668934788719    0.307923798238698  0.0000
  O1     O1        0.833947816322650    0.436755851026372    0.630282377066194  0.0000
  O1     O1        0.651819801027950    0.520183903196082    0.634436732410808  0.0000
  O3     O3        0.233542394299211    0.206826426138189    0.250000582760036  0.0000
  O1     O1        0.267771504051963    0.740887555292641    0.264910488486275  0.0000
  O1     O1        0.723783267580551    0.202484367424812    0.694110818509601  0.0000
  O1     O1        0.762994098525488    0.756217793229934    0.684635561749344  0.0000
  O1     O1        0.119023754067913    0.344447359803148    0.093055482693796  0.0000
  O3     O3        0.379520276142705    0.620876403592842    0.092472563467394  0.0000
  O1     O1        0.852865062848573    0.218160978343196    0.852754392190088  0.0000
  O1     O1        0.639765623855642    0.739930150544430    0.851388955393604  0.0000
  O1     O1        0.877410222518658    0.609362544121219    0.845922505969569  0.0000
  O1     O1        0.609651485966159    0.343296985308748    0.852780617255946  0.0000
  O1     O1        0.133852707559596    0.735396059594230    0.108819719043592  0.0000
  O3     O3        0.354133069532791    0.234559940459681    0.102590837178293  0.0000
  O1     O1        0.655518670310442    0.526744478230860    0.068857654368165  0.0000
  O1     O1        0.840618960515208    0.433960936464308    0.067995689396896  0.0000
  O3     O3        0.340218997254484    0.465077440221449    0.885649690299899  0.0000
  O1     O1        0.145700997567218    0.530119745177017    0.878698730436808  0.0000
  O1     O1        0.725626409066494    0.207479452815820    0.011744022190436  0.0000
  O1     O1        0.769126559651282    0.755781215280593    0.010796025381420  0.0000
  O1     O1        0.232570586397000    0.220528070040730    0.923197745723775  0.0000
  O3     O3        0.261535035033694    0.741575198177853    0.959233100421476  0.0000
