data_c00525.vasp
_audit_creation_method             Generated by GULP
_audit_author_name                 Salvador R. G. Balestra
_symmetry_space_group_name_H-M     'P 1             '
_symmetry_Int_Tables_number        1

loop_
_symmetry_equiv_pos_site_id
_symmetry_equiv_pos_as_xyz
_cell_length_a                       17.7906
_cell_length_b                        7.9387
_cell_length_c                       10.1762
_cell_angle_alpha                   91.9061
_cell_angle_beta                    90.1412
_cell_angle_gamma                   89.6810

loop_
_atom_site_label
_atom_site_type_symbol
_atom_site_fract_x
_atom_site_fract_y
_atom_site_fract_z
_atom_site_charge
  Ge     Ge        0.052090000000021    0.000000000000000    0.372269999999958  0.0000
  Ge     Ge        0.436864132574675    0.004653555607603    0.404900784727365  0.0000
  Ge     Ge        0.942009076385570    0.958201026208531    0.621947711274131  0.0000
  Ge     Ge        0.547695632474695    0.976852122039197    0.648928697506865  0.0000
  Ge     Ge        0.549555296123091    0.003167138529136    0.159954136849023  0.0000
  Ge     Ge        0.946182000696109    0.979182862342442    0.114783686767334  0.0000
  Ge     Ge        0.443273242870474    0.981543598026460    0.905847303306585  0.0000
  Ge     Ge        0.157803185401504    0.300846862535975    0.306206635475877  0.0000
  Ge     Ge        0.664118550695161    0.689032052121797    0.717916341429902  0.0000
  Ge     Ge        0.846240747548918    0.644954979691828    0.724608746878843  0.0000
  Ge     Ge        0.650622931669236    0.289425326071599    0.722736027584378  0.0000
  Ge     Ge        0.342526870792244    0.321329560252610    0.299851240629893  0.0000
  Ge     Ge        0.645548662935499    0.308865275127856    0.043522164371845  0.0000
  Ge     Ge        0.847034485921492    0.662120711992756    0.041624355929072  0.0000
  Ge     Ge        0.338447798859123    0.293425498509320    0.980745720992395  0.0000
  Ge     Ge        0.146097052620236    0.677647503169013    0.982471522675226  0.0000
  Ge     Ge        0.326190696307348    0.696781997673048    0.970874103464639  0.0000
  Ge     Ge        0.156616088475160    0.270057088925752    0.987355613164038  0.0000
  Ge     Ge        0.665838678706174    0.712410926622552    0.036760717535094  0.0000
  Ge     Ge        0.825566386638352    0.262798968784299    0.047953017079563  0.0000
  Si     Si        0.048090039552146    0.978069886665210    0.866510507507864  0.0000
  Si     Si        0.330337760514065    0.710366380422818    0.280723708242013  0.0000
  Si     Si        0.828369327498309    0.251643184219811    0.734479701394920  0.0000
  Si     Si        0.152107392188732    0.689858706189941    0.291985411563077  0.0000
  O1     O1        0.106023338931276    0.175194678228335    0.404748465799509  0.0000
  O3     O3        0.366299280129605    0.863994256130525    0.362424495139752  0.0000
  O3     O3        0.874278370749505    0.109773096412747    0.653561507547471  0.0000
  O1     O1        0.611266757142280    0.816353211414529    0.620903123780463  0.0000
  O1     O1        0.905097237882761    0.760354372623134    0.629774971918891  0.0000
  O1     O1        0.594331317280975    0.162760304084263    0.626728077520702  0.0000
  O3     O3        0.111220442813819    0.825955222519539    0.385311733977769  0.0000
  O1     O1        0.400257878334584    0.204220029003874    0.396043909196255  0.0000
  O1     O1        0.973063612691939    0.985358204547332    0.464149925583187  0.0000
  O1     O1        0.465321272755336    0.966246845356779    0.562812677968793  0.0000
  O1     O1        0.022234517692588    0.011341018932609    0.211679169080579  0.0000
  O1     O1        0.519289946983999    0.985096983809248    0.319148870963246  0.0000
  O3     O3        0.022888626898402    0.981226784387886    0.715301080087624  0.0000
  O1     O1        0.521750771151136    0.967867253990462    0.812220198785112  0.0000
  O1     O1        0.581199422323308    0.203780506137888    0.133507173757415  0.0000
  O1     O1        0.907274280388368    0.784595234578421    0.134420446378271  0.0000
  O1     O1        0.396470825188958    0.169259554218407    0.885509592968052  0.0000
  O3     O3        0.082563903635581    0.795378708602884    0.897398460423706  0.0000
  O1     O1        0.380190592073224    0.820113598930388    0.876396435030628  0.0000
  O3     O3        0.108210807658472    0.125076708835156    0.891421083570999  0.0000
  O1     O1        0.621149438545447    0.861562540364583    0.132591669786698  0.0000
  O1     O1        0.876626783398416    0.129037251818277    0.139712888657555  0.0000
  O1     O1        0.471418017401547    0.963334534954374    0.066483003497022  0.0000
  O3     O3        0.973574005568022    0.006423059411798    0.952853443724094  0.0000
  O3     O3        0.144719755070023    0.509736948143540    0.356263220715902  0.0000
  O3     O3        0.348883077847477    0.533742075908998    0.346788061091020  0.0000
  O3     O3        0.840166783005748    0.434646763014197    0.672579436046021  0.0000
  O1     O1        0.652546194226586    0.485110085923851    0.659654631457288  0.0000
  O1     O1        0.251623078299676    0.253688127214661    0.314506249908911  0.0000
  O2     O2        0.240060218796677    0.732602468470463    0.270922247847549  0.0000
  O3     O3        0.740635509300201    0.204601656732971    0.730127742958866  0.0000
  O1     O1        0.758084715407007    0.734098721307104    0.715981390128626  0.0000
  O1     O1        0.126582264101481    0.272283545742764    0.147012083810870  0.0000
  O3     O3        0.359661913936660    0.705280866223480    0.132053418084154  0.0000
  O3     O3        0.854837547934287    0.262646996566941    0.885216754797422  0.0000
  O1     O1        0.632829645219700    0.709046437854779    0.877922431262393  0.0000
  O1     O1        0.879719031162203    0.655885939375200    0.882232519367139  0.0000
  O1     O1        0.617431361583395    0.301270087364179    0.881426941823746  0.0000
  O3     O3        0.117091144349811    0.686115861290904    0.145731450003053  0.0000
  O1     O1        0.371857501287962    0.295882075401851    0.140099883666543  0.0000
  O1     O1        0.652362826505545    0.514806414242822    0.097860667287456  0.0000
  O1     O1        0.839215069831072    0.467316224974161    0.105583478108502  0.0000
  O1     O1        0.333588328492478    0.490083839926476    0.917813185185440  0.0000
  O1     O1        0.146024334859455    0.470357705512091    0.928997832366837  0.0000
  O1     O1        0.732394171278301    0.213575405218452    0.055719990621512  0.0000
  O1     O1        0.759852367013992    0.756370049906223    0.035214296424362  0.0000
  O1     O1        0.249311586755996    0.211872987295821    0.985010167907149  0.0000
  O1     O1        0.234038059323246    0.759397615822532    0.963518378273157  0.0000
