data_c00584.vasp
_audit_creation_method             Generated by GULP
_audit_author_name                 Salvador R. G. Balestra
_symmetry_space_group_name_H-M     'P 1             '
_symmetry_Int_Tables_number        1

loop_
_symmetry_equiv_pos_site_id
_symmetry_equiv_pos_as_xyz
_cell_length_a                       17.6180
_cell_length_b                        7.8114
_cell_length_c                       10.2463
_cell_angle_alpha                   88.4572
_cell_angle_beta                    91.2363
_cell_angle_gamma                   91.1656

loop_
_atom_site_label
_atom_site_type_symbol
_atom_site_fract_x
_atom_site_fract_y
_atom_site_fract_z
_atom_site_charge
  Ge     Ge        0.052090000000021    0.000000000000000    0.372269999999958  0.0000
  Ge     Ge        0.442157300775069    0.063402199536936    0.364811577668887  0.0000
  Ge     Ge        0.945483083109075    0.079799007764827    0.617981381559752  0.0000
  Ge     Ge        0.541041146969821    0.038975206879330    0.627135056345079  0.0000
  Ge     Ge        0.556486551483456    0.013431682707355    0.137249127534544  0.0000
  Ge     Ge        0.442128691900887    0.083291557387739    0.889989086700707  0.0000
  Ge     Ge        0.174513660110499    0.286697022781362    0.264314279970312  0.0000
  Ge     Ge        0.326401327158006    0.764509876572856    0.260993108744544  0.0000
  Ge     Ge        0.849248962028295    0.393338320747795    0.692086265008839  0.0000
  Ge     Ge        0.641029281894846    0.719603627630904    0.697326210662461  0.0000
  Ge     Ge        0.821326693149556    0.796290728550441    0.692182443840433  0.0000
  Ge     Ge        0.668794113121472    0.313768723438250    0.699647322288668  0.0000
  Ge     Ge        0.143014124667264    0.687083530059389    0.265847092505918  0.0000
  Ge     Ge        0.675797380344475    0.302379039999725    0.016463242990302  0.0000
  Ge     Ge        0.829919275390390    0.788984728259034    0.010637396838207  0.0000
  Ge     Ge        0.139842044164852    0.709953877898302    0.949114431867712  0.0000
  Ge     Ge        0.322617871670851    0.782348884553981    0.948528178877006  0.0000
  Ge     Ge        0.163577123237594    0.307469838774161    0.940297389103020  0.0000
  Ge     Ge        0.649071182795579    0.707783992027209    0.016185068720392  0.0000
  Ge     Ge        0.856597952817394    0.384586447442438    0.008841429245891  0.0000
  Si     Si        0.946975540669741    0.071684812572197    0.122508153609253  0.0000
  Si     Si        0.042847524337317    0.020956686367245    0.876866398396556  0.0000
  Si     Si        0.346633004031975    0.372188588970026    0.249557348260516  0.0000
  Si     Si        0.336395421998742    0.389519428764963    0.937160490779412  0.0000
  O1     O1        0.132209807793117    0.123057220405935    0.348916170271909  0.0000
  O1     O1        0.373159468706917    0.907363955291658    0.359190433323793  0.0000
  O1     O1        0.911767459169819    0.283400188533130    0.600329372857487  0.0000
  O1     O1        0.572869647714428    0.833515250398067    0.612962878060848  0.0000
  O1     O1        0.871015797291645    0.938058676405863    0.595098145306492  0.0000
  O1     O1        0.617398909881279    0.177069841953587    0.604040632362336  0.0000
  O1     O1        0.078042933263358    0.792394335154232    0.355323813180652  0.0000
  O3     O3        0.417438438781614    0.261189901452181    0.295075840693976  0.0000
  O1     O1        0.021398597984943    0.035442855571538    0.526766123796182  0.0000
  O1     O1        0.465293307267899    0.085737285123824    0.527867102024895  0.0000
  O3     O3        0.976773916577259    0.057731569235588    0.270659433222294  0.0000
  O1     O1        0.525925214782070    0.010285061091168    0.295478794651338  0.0000
  O3     O3        0.972643579081991    0.056745484052317    0.782546263698471  0.0000
  O1     O1        0.515038789533247    0.066501921374015    0.786950246842415  0.0000
  O1     O1        0.631941382732887    0.152318769354321    0.114644474577307  0.0000
  O3     O3        0.876514898326721    0.941626565922004    0.102659266827022  0.0000
  O3     O3        0.404096551446593    0.288510041196936    0.878260461910847  0.0000
  O3     O3        0.076788690682698    0.834259659289584    0.858219754411294  0.0000
  O1     O1        0.373007485633353    0.930280904331004    0.857936618821021  0.0000
  O3     O3        0.109766402250110    0.161804388615479    0.854110033147672  0.0000
  O1     O1        0.583642928116162    0.809567979459777    0.104660989001522  0.0000
  O3     O3        0.923715035543557    0.267006406207625    0.095613763641660  0.0000
  O1     O1        0.477352196407686    0.068967792080279    0.046705389132343  0.0000
  O2     O2        0.015995377542620    0.025473358648504    0.027987999720934  0.0000
  O1     O1        0.152038921850184    0.481622809994810    0.325523214846586  0.0000
  O3     O3        0.346574224812740    0.555908244357814    0.315321567880364  0.0000
  O1     O1        0.833934945308204    0.594766152500182    0.631017078673700  0.0000
  O1     O1        0.653592804656882    0.519930523500341    0.639811033327508  0.0000
  O3     O3        0.271651530522020    0.260139398833865    0.283252540796386  0.0000
  O1     O1        0.230399613423379    0.790472410519138    0.267467280607958  0.0000
  O1     O1        0.764521921163413    0.278120835301441    0.697084219902007  0.0000
  O1     O1        0.726069091423258    0.834681716775263    0.691924201198039  0.0000
  O1     O1        0.146312470861787    0.282232453820807    0.103301935131259  0.0000
  O1     O1        0.357622047341691    0.804683005708885    0.105580083872745  0.0000
  O1     O1        0.883574922593823    0.410084592896466    0.849862462178254  0.0000
  O1     O1        0.615577765133579    0.698830196225168    0.858057216975294  0.0000
  O1     O1        0.855873804111094    0.802825645025854    0.850727923959904  0.0000
  O1     O1        0.640132855530676    0.293422215315589    0.859579620296309  0.0000
  O1     O1        0.110807304372333    0.681685523178800    0.106805993362920  0.0000
  O2     O2        0.342072614228800    0.419136085485330    0.094223166520316  0.0000
  O1     O1        0.662389738297405    0.503787805879900    0.075806449052506  0.0000
  O1     O1        0.848768350090415    0.585051010923857    0.071052824899787  0.0000
  O3     O3        0.333869522353934    0.582157130335097    0.880298277349765  0.0000
  O1     O1        0.143445254554392    0.511433115693943    0.884069569034984  0.0000
  O1     O1        0.771882670327575    0.272411257735610    0.013754353460447  0.0000
  O1     O1        0.734192490964150    0.820667660498832    0.018568369979901  0.0000
  O3     O3        0.259276807300721    0.280296062241952    0.911916398248198  0.0000
  O1     O1        0.226821974460072    0.814948643212316    0.949937033350504  0.0000
