data_c00559.vasp
_audit_creation_method             Generated by GULP
_audit_author_name                 Salvador R. G. Balestra
_symmetry_space_group_name_H-M     'P 1             '
_symmetry_Int_Tables_number        1

loop_
_symmetry_equiv_pos_site_id
_symmetry_equiv_pos_as_xyz
_cell_length_a                       17.5915
_cell_length_b                        7.8027
_cell_length_c                       10.0751
_cell_angle_alpha                   90.8678
_cell_angle_beta                    91.4671
_cell_angle_gamma                   93.0342

loop_
_atom_site_label
_atom_site_type_symbol
_atom_site_fract_x
_atom_site_fract_y
_atom_site_fract_z
_atom_site_charge
  Ge     Ge        0.052090000000021    0.000000000000000    0.372269999999958  0.0000
  Ge     Ge        0.459601610029306    0.083501686046639    0.359593137910760  0.0000
  Ge     Ge        0.937442006699365    0.038668569759643    0.614179331679168  0.0000
  Ge     Ge        0.545534568528454    0.994674778812404    0.628167109126534  0.0000
  Ge     Ge        0.543775820602007    0.990003381381597    0.082097235205429  0.0000
  Ge     Ge        0.947062594592377    0.040918805635921    0.111237644512749  0.0000
  Ge     Ge        0.175077315379319    0.292207454702711    0.300112253989737  0.0000
  Ge     Ge        0.331528821547921    0.786867493648360    0.279948657154187  0.0000
  Ge     Ge        0.840174671063492    0.338415971728203    0.727459525312353  0.0000
  Ge     Ge        0.632729744572607    0.669016608618509    0.721087777349148  0.0000
  Ge     Ge        0.813807965232297    0.748141033788791    0.726833773102278  0.0000
  Ge     Ge        0.151288808496035    0.695706063741773    0.293978406105548  0.0000
  Ge     Ge        0.354444424702977    0.381432162430169    0.291285029863115  0.0000
  Ge     Ge        0.818940539222985    0.748861745029350    0.046779178852315  0.0000
  Ge     Ge        0.347260384413833    0.361417544740673    0.966180770655321  0.0000
  Ge     Ge        0.135820861361193    0.673470658987024    0.973941219653052  0.0000
  Ge     Ge        0.320592718017318    0.762600182745254    0.960344983694159  0.0000
  Ge     Ge        0.164118349360049    0.273875453926300    0.975474940270017  0.0000
  Ge     Ge        0.637791162748821    0.666858436963034    0.051412288664358  0.0000
  Ge     Ge        0.844464462942944    0.342602173790095    0.043467011104538  0.0000
  Si     Si        0.427605438423321    0.047927913540883    0.841051373610013  0.0000
  Si     Si        0.045388979823397    0.975822112342985    0.859443344905408  0.0000
  Si     Si        0.666651343431468    0.292503464808534    0.727208623237310  0.0000
  Si     Si        0.670855275114981    0.292145700673482    0.039304597607876  0.0000
  O1     O1        0.123309043465555    0.158312581723159    0.399942157086041  0.0000
  O1     O1        0.387078599390397    0.928527640982083    0.375028003713445  0.0000
  O1     O1        0.906107792394768    0.240646423775805    0.634191331327055  0.0000
  O1     O1        0.566275574119121    0.784097030645190    0.637736688089922  0.0000
  O1     O1        0.862432277102773    0.893738354456741    0.631616205737498  0.0000
  O3     O3        0.620888207747584    0.112213589714429    0.706407524587857  0.0000
  O1     O1        0.091541698651697    0.805332264120272    0.391955311122916  0.0000
  O1     O1        0.422904569612376    0.281240938985599    0.379861162286426  0.0000
  O1     O1        0.970754696364125    0.025217962933274    0.455170898040709  0.0000
  O1     O1        0.534790305996846    0.050535497789987    0.464760728975389  0.0000
  O1     O1        0.026008906011150    0.012865165819162    0.205543944438914  0.0000
  O1     O1        0.489535213421533    0.077818757774501    0.197480838501908  0.0000
  O3     O3        0.018013738921594    0.993266848559212    0.707561509557602  0.0000
  O3     O3        0.458172112513904    0.042093854488434    0.692481292927194  0.0000
  O3     O3        0.628635692825093    0.111525064933992    0.059520036280838  0.0000
  O1     O1        0.873050049201976    0.894160319991870    0.140556850737093  0.0000
  O3     O3        0.411217182539567    0.242233309337486    0.881174741024259  0.0000
  O3     O3        0.069996055340870    0.782577955101091    0.883411628935311  0.0000
  O3     O3        0.353420260845200    0.922717732153783    0.855879494684045  0.0000
  O3     O3        0.117570275728327    0.105960412741976    0.890345468063168  0.0000
  O1     O1        0.573333115972421    0.791703065984473    0.127209192801119  0.0000
  O1     O1        0.911630614951680    0.240180715556694    0.133899998477824  0.0000
  O3     O3        0.496065302332978    0.975454860955003    0.930482912240689  0.0000
  O3     O3        0.973336532322395    0.015390289487905    0.946393057527184  0.0000
  O1     O1        0.168163183312321    0.500178104344254    0.357839443882258  0.0000
  O1     O1        0.343348358482906    0.585822255468401    0.344960837282887  0.0000
  O1     O1        0.857553885607563    0.555957704105830    0.725137993175981  0.0000
  O3     O3        0.617041128279666    0.449622770758884    0.682011952960101  0.0000
  O1     O1        0.270492951189883    0.256656665925554    0.298996823827278  0.0000
  O1     O1        0.235831022158462    0.818522842285457    0.281488998400956  0.0000
  O3     O3        0.748211583040656    0.289693265747222    0.660721316009859  0.0000
  O1     O1        0.722188425879200    0.719997868379660    0.665326179853196  0.0000
  O1     O1        0.139942094807650    0.273942557420534    0.138770909654433  0.0000
  O1     O1        0.360830605920142    0.797420035644843    0.117072902426622  0.0000
  O1     O1        0.850278355720820    0.260848882667631    0.884507851106452  0.0000
  O1     O1        0.625144088820759    0.715069799433144    0.886351322002548  0.0000
  O1     O1        0.809697790579737    0.821935225470942    0.887385252443873  0.0000
  O2     O2        0.688985493042584    0.339009183357766    0.883789343088756  0.0000
  O1     O1        0.111091543209733    0.664857046786011    0.137000820415360  0.0000
  O1     O1        0.378353728958994    0.393868938099101    0.126446130478055  0.0000
  O3     O3        0.621043483424232    0.449489239292824    0.085677931759580  0.0000
  O1     O1        0.864331387906844    0.558191826446674    0.046619551427698  0.0000
  O1     O1        0.340451370640863    0.562365757300790    0.900120289907818  0.0000
  O1     O1        0.140608660381542    0.468477815647445    0.911401845134302  0.0000
  O3     O3        0.754128582618347    0.297253024690273    0.107469587754927  0.0000
  O1     O1        0.729354661160088    0.714816715760009    0.107376550154394  0.0000
  O1     O1        0.260031576984143    0.252335326788749    0.962429790284127  0.0000
  O1     O1        0.224659544994045    0.776077260124127    0.970821235225888  0.0000
