data_c00523.vasp
_audit_creation_method             Generated by GULP
_audit_author_name                 Salvador R. G. Balestra
_symmetry_space_group_name_H-M     'P 1             '
_symmetry_Int_Tables_number        1

loop_
_symmetry_equiv_pos_site_id
_symmetry_equiv_pos_as_xyz
_cell_length_a                       17.5850
_cell_length_b                        7.8353
_cell_length_c                       10.2137
_cell_angle_alpha                   90.6962
_cell_angle_beta                    89.6296
_cell_angle_gamma                   88.5725

loop_
_atom_site_label
_atom_site_type_symbol
_atom_site_fract_x
_atom_site_fract_y
_atom_site_fract_z
_atom_site_charge
  Ge     Ge        0.052090000000021    0.000000000000000    0.372269999999958  0.0000
  Ge     Ge        0.436772253828369    0.959531551098100    0.370835292355197  0.0000
  Ge     Ge        0.947296598491887    0.939269593280072    0.625349896305479  0.0000
  Ge     Ge        0.548244791732849    0.995201806836098    0.615147789602414  0.0000
  Ge     Ge        0.549323464535661    0.004654234389450    0.126111950678153  0.0000
  Ge     Ge        0.943622487868785    0.943705252601964    0.123260388143108  0.0000
  Ge     Ge        0.445977852496218    0.939431294673992    0.873169079402826  0.0000
  Ge     Ge        0.138008149477382    0.325118835045089    0.262874055132196  0.0000
  Ge     Ge        0.827023315088375    0.235552614820868    0.689560984348413  0.0000
  Ge     Ge        0.671359765853721    0.711977629802759    0.690912366258228  0.0000
  Ge     Ge        0.645460989160212    0.311381148678588    0.683039481455212  0.0000
  Ge     Ge        0.322695768707172    0.256143265479916    0.263518303472289  0.0000
  Ge     Ge        0.642254180776852    0.313899295961561    0.002896841625602  0.0000
  Ge     Ge        0.851100864182835    0.631074562992881    0.004721443166104  0.0000
  Ge     Ge        0.322497669448235    0.229034069060163    0.949275337776011  0.0000
  Ge     Ge        0.163380371979220    0.708944250058285    0.942488406554265  0.0000
  Ge     Ge        0.342768939145211    0.634239435526076    0.935734600991948  0.0000
  Ge     Ge        0.140588277968677    0.305199626868283    0.947795818595945  0.0000
  Ge     Ge        0.671433197833354    0.718178605793678    0.009471024086450  0.0000
  Ge     Ge        0.823071661941343    0.227547108801856    0.006947457576311  0.0000
  Si     Si        0.045678079961008    0.999425355389504    0.876472928721025  0.0000
  Si     Si        0.343330391882749    0.647622278462050    0.247859036020980  0.0000
  Si     Si        0.848600263161693    0.630533540640145    0.693133084653096  0.0000
  Si     Si        0.166254188077634    0.714730128718561    0.253074928111177  0.0000
  O1     O1        0.076795282534891    0.209284708148743    0.355938830800456  0.0000
  O3     O3        0.399873381512181    0.765244855686814    0.327029330035392  0.0000
  O1     O1        0.880258596992299    0.096577835855550    0.593603638387024  0.0000
  O1     O1        0.624522233859973    0.854719221175789    0.593995150691816  0.0000
  O3     O3        0.908080054901982    0.739131209331121    0.610823904355637  0.0000
  O1     O1        0.581525558642420    0.196890607122647    0.593302047233248  0.0000
  O3     O3        0.131232551583905    0.872600561729757    0.333911802319399  0.0000
  O1     O1        0.368631024822094    0.117995863374200    0.366137873200668  0.0000
  O1     O1        0.026401550449680    0.959895509926080    0.531290772443049  0.0000
  O1     O1        0.468914375058636    0.946470028811983    0.529914613370957  0.0000
  O1     O1        0.973363101818140    0.951525985966875    0.282542542440654  0.0000
  O1     O1        0.518139887559133    0.004004770252364    0.286041713382766  0.0000
  O3     O3        0.973603267097022    0.964644401678595    0.788429254419210  0.0000
  O1     O1        0.522495311791876    0.979528480224337    0.779003054024351  0.0000
  O1     O1        0.574328880550557    0.209258135587430    0.088338337054861  0.0000
  O1     O1        0.920173893580998    0.737225394226492    0.085978319956381  0.0000
  O1     O1        0.372615515667592    0.087216388245602    0.853288183547832  0.0000
  O3     O3        0.109875459310804    0.851175867343603    0.853196363283107  0.0000
  O1     O1        0.409191810745722    0.739481110729585    0.848021135124804  0.0000
  O3     O3        0.081667391126299    0.183071174271667    0.850836753267827  0.0000
  O1     O1        0.626330633290111    0.867451558144027    0.107006178694274  0.0000
  O1     O1        0.866911533285387    0.080074262003066    0.104419000273956  0.0000
  O1     O1        0.473893854831744    0.942574255746734    0.034449882609829  0.0000
  O3     O3        0.020122976378175    0.002770034584664    0.028571572162626  0.0000
  O3     O3        0.144096582563893    0.535804152723725    0.317428465710348  0.0000
  O3     O3        0.341053056378756    0.463745601726932    0.313962037600107  0.0000
  O3     O3        0.838117550008477    0.443184186072149    0.632782100660882  0.0000
  O1     O1        0.654636247986355    0.512804211041386    0.625362770747610  0.0000
  O1     O1        0.226761109351137    0.229475555073448    0.268524092880398  0.0000
  O2     O2        0.257816392235326    0.731477774075705    0.246144860726192  0.0000
  O1     O1        0.731498631921064    0.199720580378076    0.681249122882494  0.0000
  O3     O3        0.768890447541356    0.738105018592938    0.695332199488493  0.0000
  O1     O1        0.106032584993417    0.326442538350180    0.105013095724102  0.0000
  O3     O3        0.370344455320913    0.623641455846705    0.098952228464273  0.0000
  O1     O1        0.856009373964076    0.210851270988099    0.848459431163580  0.0000
  O1     O1        0.639764719546929    0.731811668478167    0.850494933860306  0.0000
  O3     O3        0.876774468608827    0.605982224107947    0.841248523871851  0.0000
  O1     O1        0.614640000791980    0.331637112953584    0.842715463131542  0.0000
  O3     O3        0.134974616570057    0.717484067947655    0.105527213932022  0.0000
  O1     O1        0.356415155996004    0.218067507707590    0.107439936657217  0.0000
  O1     O1        0.654728283466934    0.515276049989401    0.064999371692724  0.0000
  O1     O1        0.839906155875110    0.431032684065638    0.065525185990836  0.0000
  O1     O1        0.333389735078992    0.429523444658771    0.883526739093022  0.0000
  O1     O1        0.149681230297374    0.504148802106059    0.884324176635686  0.0000
  O1     O1        0.726793089076820    0.198198976379766    0.007302613555502  0.0000
  O1     O1        0.767602053599389    0.748931535645074    0.014654918541023  0.0000
  O1     O1        0.226699332652147    0.196292463245070    0.955707220937626  0.0000
  O1     O1        0.257907064128623    0.748669447012783    0.926939198212173  0.0000
