data_c00520.vasp
_audit_creation_method             Generated by GULP
_audit_author_name                 Salvador R. G. Balestra
_symmetry_space_group_name_H-M     'P 1             '
_symmetry_Int_Tables_number        1

loop_
_symmetry_equiv_pos_site_id
_symmetry_equiv_pos_as_xyz
_cell_length_a                       17.7911
_cell_length_b                        7.8393
_cell_length_c                       10.3768
_cell_angle_alpha                   90.2537
_cell_angle_beta                    91.2790
_cell_angle_gamma                   89.9965

loop_
_atom_site_label
_atom_site_type_symbol
_atom_site_fract_x
_atom_site_fract_y
_atom_site_fract_z
_atom_site_charge
  Ge     Ge        0.052090000000021    0.000000000000000    0.372269999999958  0.0000
  Ge     Ge        0.439695622640245    0.025494045588609    0.354563005201295  0.0000
  Ge     Ge        0.942646884518548    0.996600627699761    0.616955343968951  0.0000
  Ge     Ge        0.545198384309630    0.029177365130730    0.611820835784520  0.0000
  Ge     Ge        0.548393092374700    0.027629728552949    0.112331297564116  0.0000
  Ge     Ge        0.940603745768220    0.994828458468397    0.119155553938845  0.0000
  Ge     Ge        0.440122807111827    0.019251587972836    0.863596353782990  0.0000
  Ge     Ge        0.166782280246815    0.288573712801311    0.254324903590187  0.0000
  Ge     Ge        0.821021121605001    0.277420421057918    0.688135583472996  0.0000
  Ge     Ge        0.663155850811084    0.740015116943047    0.684803824987146  0.0000
  Ge     Ge        0.843401502676626    0.680845196392540    0.685813004052762  0.0000
  Ge     Ge        0.151472978184948    0.691203940546812    0.262793235415351  0.0000
  Ge     Ge        0.642027018679223    0.340502879031892    0.993492804333341  0.0000
  Ge     Ge        0.846183274060858    0.680190737504662    0.000576305027460  0.0000
  Ge     Ge        0.337443150688774    0.330973223876662    0.936264828762600  0.0000
  Ge     Ge        0.139462756815206    0.698855982940542    0.947622509957103  0.0000
  Ge     Ge        0.319464808099295    0.742251805849649    0.937860697661241  0.0000
  Ge     Ge        0.156670641863089    0.290468491411978    0.941350585113198  0.0000
  Ge     Ge        0.666998066320710    0.749221754696556    0.996922043437679  0.0000
  Ge     Ge        0.820251558158833    0.273371367997623    0.001653566870706  0.0000
  Si     Si        0.040202187977588    0.009078031051296    0.873705166783455  0.0000
  Si     Si        0.328168657182446    0.732359611311164    0.243353249374336  0.0000
  Si     Si        0.644950249950764    0.339591998840655    0.686468432413592  0.0000
  Si     Si        0.343549943844346    0.332709309485501    0.239662507556312  0.0000
  O1     O1        0.123117312964204    0.142612733938453    0.347035581313887  0.0000
  O3     O3        0.379176949928956    0.854588907025275    0.332185858326191  0.0000
  O1     O1        0.869422388672440    0.137930745612335    0.594550695072317  0.0000
  O1     O1        0.610489629332738    0.870741039328534    0.586767737549604  0.0000
  O1     O1        0.905849629901011    0.796115469315396    0.597342465166033  0.0000
  O3     O3        0.587552928409240    0.227974052171285    0.599893891460832  0.0000
  O1     O1        0.091994690808983    0.802409420478130    0.358285795587507  0.0000
  O3     O3        0.398993065175892    0.224054544048632    0.329754520781734  0.0000
  O1     O1        0.018864302962974    0.029726691029437    0.525100237541571  0.0000
  O1     O1        0.467454618715352    0.017707457673256    0.513790647425006  0.0000
  O1     O1        0.974262889326305    0.022059436310213    0.273600080354736  0.0000
  O1     O1        0.520507085485939    0.012519084537290    0.269377349106773  0.0000
  O3     O3        0.970050015602008    0.026573506124661    0.777777913132340  0.0000
  O1     O1        0.514459502032220    0.998294699056116    0.766248288238683  0.0000
  O1     O1        0.574715427220377    0.232764818465961    0.073812915840494  0.0000
  O1     O1        0.911497837796702    0.788760917754077    0.092582561688503  0.0000
  O1     O1        0.399627117078120    0.217827533526042    0.847475608602307  0.0000
  O3     O3        0.075264814573173    0.820268872629055    0.861070801993871  0.0000
  O1     O1        0.368750805745528    0.872039984721943    0.840429005508976  0.0000
  O3     O3        0.104034518592349    0.150095580269857    0.848277111706919  0.0000
  O1     O1        0.622853070013245    0.891507086709773    0.094056077245455  0.0000
  O1     O1        0.866183061333036    0.130764752159415    0.098424283796000  0.0000
  O1     O1        0.472094155872461    0.975813913490744    0.017702693749752  0.0000
  O3     O3        0.013731913302650    0.043535134118042    0.019061182274995  0.0000
  O1     O1        0.153923580806432    0.487542694345717    0.319272084135903  0.0000
  O2     O2        0.337801415436056    0.531813289830399    0.282559594152424  0.0000
  O1     O1        0.836060565240552    0.477976051989342    0.627324354755082  0.0000
  O3     O3        0.653702589227834    0.529085506850272    0.632206974158498  0.0000
  O3     O3        0.261823195132483    0.246853546136036    0.245732618179078  0.0000
  O3     O3        0.241076507375175    0.779137727876152    0.260041666135135  0.0000
  O3     O3        0.724905345441242    0.241633159347079    0.688468933954989  0.0000
  O1     O1        0.757490500784590    0.783614908067386    0.680827141911571  0.0000
  O1     O1        0.130894325890548    0.286094672443961    0.099970101382307  0.0000
  O3     O3        0.352079220789900    0.755072066198267    0.096908750980228  0.0000
  O1     O1        0.851086113773483    0.263149883245335    0.846235129352528  0.0000
  O1     O1        0.633896664454239    0.764578236889796    0.840452114418858  0.0000
  O1     O1        0.874621504040398    0.670505569628300    0.843655538164119  0.0000
  O3     O3        0.615291955979750    0.352171043231881    0.831680250356084  0.0000
  O1     O1        0.115743469022051    0.697079999781890    0.107367521450633  0.0000
  O3     O3        0.372119721937039    0.322185244772396    0.094497433743200  0.0000
  O1     O1        0.651994141095998    0.544035458220133    0.050650506690435  0.0000
  O1     O1        0.835400937890396    0.478129179505645    0.058473376709007  0.0000
  O1     O1        0.329947165264354    0.535610328688442    0.884467916812488  0.0000
  O1     O1        0.142218525086389    0.495837620134128    0.887232193278991  0.0000
  O1     O1        0.725659700078238    0.232199873390111    0.005573466960458  0.0000
  O1     O1        0.761821938649319    0.787587518545276    0.000729821790506  0.0000
  O1     O1        0.249763443753690    0.238733670324075    0.930147010452145  0.0000
  O1     O1        0.226145350566278    0.792966552524963    0.935793108640663  0.0000
