data_c00542.vasp
_audit_creation_method             Generated by GULP
_audit_author_name                 Salvador R. G. Balestra
_symmetry_space_group_name_H-M     'P 1             '
_symmetry_Int_Tables_number        1

loop_
_symmetry_equiv_pos_site_id
_symmetry_equiv_pos_as_xyz
_cell_length_a                       17.5134
_cell_length_b                        7.8534
_cell_length_c                       10.3638
_cell_angle_alpha                   90.3245
_cell_angle_beta                    90.0594
_cell_angle_gamma                   91.8088

loop_
_atom_site_label
_atom_site_type_symbol
_atom_site_fract_x
_atom_site_fract_y
_atom_site_fract_z
_atom_site_charge
  Ge     Ge        0.052090000000021    0.000000000000000    0.372269999999958  0.0000
  Ge     Ge        0.451081119151041    0.057425159111256    0.337977416088346  0.0000
  Ge     Ge        0.953341415697649    0.063147192892591    0.630660948182641  0.0000
  Ge     Ge        0.551675134616590    0.005305759314047    0.596592231026125  0.0000
  Ge     Ge        0.552205175707734    0.010593992837696    0.077092597816242  0.0000
  Ge     Ge        0.944660316834100    0.063606158423163    0.125170822457803  0.0000
  Ge     Ge        0.174258181105642    0.289816976024882    0.259133551524111  0.0000
  Ge     Ge        0.327470779830975    0.773113410011963    0.260869165123021  0.0000
  Ge     Ge        0.856282805635263    0.376882841365815    0.704636307885132  0.0000
  Ge     Ge        0.647411569271387    0.697926007459910    0.707703755596390  0.0000
  Ge     Ge        0.827639219371915    0.779062354752864    0.703334185286993  0.0000
  Ge     Ge        0.674020020542532    0.295209995009531    0.708001953032351  0.0000
  Ge     Ge        0.145933962278198    0.689004144848897    0.259425203858325  0.0000
  Ge     Ge        0.355883120215394    0.372067557520369    0.260624411727032  0.0000
  Ge     Ge        0.671646066207661    0.312237848069473    0.019744294671863  0.0000
  Ge     Ge        0.353540096089700    0.365434267325924    0.947663270757688  0.0000
  Ge     Ge        0.146363417411992    0.691877558135384    0.945108130102971  0.0000
  Ge     Ge        0.330023908526364    0.768480986131486    0.946569161284291  0.0000
  Ge     Ge        0.168901199709039    0.292536139184364    0.946731451882220  0.0000
  Ge     Ge        0.856662473373436    0.384836795132838    0.017038790380879  0.0000
  Si     Si        0.445269304731081    0.058173078851536    0.833921247090392  0.0000
  Si     Si        0.049954031889244    0.000617852123826    0.883127362501430  0.0000
  Si     Si        0.830564797024735    0.775770257715975    0.009639869565612  0.0000
  Si     Si        0.653040235055909    0.701703092228662    0.014575312884391  0.0000
  O1     O1        0.128434360614957    0.137023982396319    0.348350615185234  0.0000
  O1     O1        0.374848123238974    0.916197904358707    0.358469632409156  0.0000
  O1     O1        0.920461749046459    0.265150737972295    0.614898015782963  0.0000
  O1     O1        0.577256571103690    0.800963344750447    0.628179930903840  0.0000
  O1     O1        0.877746526828686    0.920120241110463    0.609994152450759  0.0000
  O1     O1        0.627697666746858    0.144326458085427    0.615599695743401  0.0000
  O1     O1        0.078388235515463    0.794867930443856    0.344604131997565  0.0000
  O1     O1        0.420006859279214    0.261966350170530    0.350364162588348  0.0000
  O1     O1        0.027276984810789    0.021850533823421    0.532127559781494  0.0000
  O1     O1        0.525274380059729    0.018614932350744    0.437202985208042  0.0000
  O1     O1        0.973007818664425    0.046502556957876    0.282414877344144  0.0000
  O1     O1        0.477838363808416    0.022301893808327    0.179309815037324  0.0000
  O3     O3        0.980049719707056    0.036563695963907    0.791268154302683  0.0000
  O3     O3        0.471941291135960    0.056335664170760    0.685878078472004  0.0000
  O1     O1        0.618130446124601    0.171971498220357    0.109492460910055  0.0000
  O3     O3        0.866540363375704    0.928367818392728    0.093913577277766  0.0000
  O3     O3        0.419076925180918    0.248276928302803    0.864466339725923  0.0000
  O3     O3        0.082380142306919    0.813142185475232    0.860768951465016  0.0000
  O3     O3        0.375672757600823    0.923331485469249    0.855261027364340  0.0000
  O3     O3        0.118463979749142    0.139569729174586    0.859235530410046  0.0000
  O3     O3        0.599137778573915    0.820146418327348    0.096112015616865  0.0000
  O1     O1        0.919030922209276    0.271005984156067    0.106508082919340  0.0000
  O3     O3        0.518240607181195    0.011414484258212    0.919830627082366  0.0000
  O3     O3        0.022329672510988    0.012790687587495    0.031799327346250  0.0000
  O1     O1        0.159306631850672    0.490537869910399    0.321526849728285  0.0000
  O1     O1        0.342740944883111    0.571135896186628    0.320061668700138  0.0000
  O1     O1        0.843490127800231    0.575904983158123    0.646259926280062  0.0000
  O1     O1        0.658271378709218    0.496409885665227    0.649023566004766  0.0000
  O1     O1        0.270280871090766    0.256580877385333    0.256917642700270  0.0000
  O1     O1        0.231211171635304    0.805148759454143    0.261085479616191  0.0000
  O1     O1        0.770318204108970    0.263647465589165    0.707213377810163  0.0000
  O1     O1        0.731971974400022    0.814232358928896    0.693514179690801  0.0000
  O1     O1        0.139064241547587    0.284229665946115    0.104311450988265  0.0000
  O1     O1        0.360058850476892    0.781107775188008    0.103711437768641  0.0000
  O1     O1        0.888482572379712    0.387175401865284    0.861355745121674  0.0000
  O3     O3        0.622775379661454    0.679028953128233    0.868820929739951  0.0000
  O3     O3        0.858995552077725    0.787882201685098    0.862742349940940  0.0000
  O1     O1        0.641275922224039    0.281070082759087    0.863558706269252  0.0000
  O1     O1        0.117035559838188    0.667109886888984    0.101817812166936  0.0000
  O1     O1        0.386240711757651    0.385252467631337    0.102941684547860  0.0000
  O3     O3        0.655791919585891    0.516747902647462    0.077210723902658  0.0000
  O3     O3        0.852785891062843    0.595029062423251    0.069558814374727  0.0000
  O1     O1        0.346395799045154    0.567239698609786    0.886720149208130  0.0000
  O1     O1        0.153040406308855    0.490883231862964    0.882148276442747  0.0000
  O1     O1        0.767974954068480    0.285560185577383    0.027368629899344  0.0000
  O2     O2        0.738430297062183    0.787781258876710    0.005651266266451  0.0000
  O1     O1        0.265471537152906    0.262221073351347    0.943393886141245  0.0000
  O1     O1        0.233574559738628    0.798376963500177    0.942738335244485  0.0000
