data_c00510.vasp
_audit_creation_method             Generated by GULP
_audit_author_name                 Salvador R. G. Balestra
_symmetry_space_group_name_H-M     'P 1             '
_symmetry_Int_Tables_number        1

loop_
_symmetry_equiv_pos_site_id
_symmetry_equiv_pos_as_xyz
_cell_length_a                       17.7718
_cell_length_b                        7.8374
_cell_length_c                       10.4031
_cell_angle_alpha                   90.3198
_cell_angle_beta                    91.0971
_cell_angle_gamma                   90.4508

loop_
_atom_site_label
_atom_site_type_symbol
_atom_site_fract_x
_atom_site_fract_y
_atom_site_fract_z
_atom_site_charge
  Ge     Ge        0.052090000000021    0.000000000000000    0.372269999999958  0.0000
  Ge     Ge        0.439553460073657    0.978105777720361    0.354495260514037  0.0000
  Ge     Ge        0.943751360997653    0.992137211701680    0.618722549443700  0.0000
  Ge     Ge        0.539242346815259    0.955006447890882    0.613852053297680  0.0000
  Ge     Ge        0.551223687082179    0.961924010107517    0.120616552044428  0.0000
  Ge     Ge        0.941779408157562    0.999747109435824    0.119008637496486  0.0000
  Ge     Ge        0.438908462191850    0.972494124972483    0.874133200977149  0.0000
  Ge     Ge        0.150886743857863    0.309621060115963    0.262623732663818  0.0000
  Ge     Ge        0.842995399287944    0.305442071246902    0.689790629236627  0.0000
  Ge     Ge        0.641281243426960    0.644923811882139    0.688452114625482  0.0000
  Ge     Ge        0.820703068239695    0.711563138306706    0.689688901326217  0.0000
  Ge     Ge        0.663618519769604    0.236858579755306    0.689729272871136  0.0000
  Ge     Ge        0.169100611700921    0.713783038271071    0.256770445372922  0.0000
  Ge     Ge        0.669280695903288    0.239741854862666    0.001705558026032  0.0000
  Ge     Ge        0.821298113259984    0.718326163013449    0.002207442851193  0.0000
  Ge     Ge        0.322037613594726    0.261281096369605    0.941462602373282  0.0000
  Ge     Ge        0.158842303286885    0.704123178932622    0.940718848419713  0.0000
  Ge     Ge        0.140469586676679    0.297591833707553    0.948129939033737  0.0000
  Ge     Ge        0.641560860306364    0.646385156439506    0.001592257400727  0.0000
  Ge     Ge        0.848883092998298    0.313629645835676    0.002588390959792  0.0000
  Si     Si        0.042160531542198    0.983199069999263    0.874409614265427  0.0000
  Si     Si        0.343798843586129    0.665742694977969    0.239452526736395  0.0000
  Si     Si        0.328302338140441    0.267656844594360    0.245005554176453  0.0000
  Si     Si        0.335441586400517    0.663926462428788    0.937330216655043  0.0000
  O1     O1        0.090852640140727    0.199548694802862    0.357912866368807  0.0000
  O3     O3        0.406151623765922    0.774966807382109    0.314345668034896  0.0000
  O1     O1        0.905622384928099    0.190879246266483    0.600755115515855  0.0000
  O1     O1        0.577576428200314    0.756102762082803    0.596682417956173  0.0000
  O1     O1        0.872781840679835    0.844292907372411    0.595504382862704  0.0000
  O1     O1        0.610247884586080    0.103404551536318    0.594446896139564  0.0000
  O1     O1        0.124254834630029    0.861364761386405    0.345957679200108  0.0000
  O3     O3        0.377435755812974    0.144570622022529    0.334433802590953  0.0000
  O1     O1        0.019901726902971    0.966931161591191    0.524640420668743  0.0000
  O1     O1        0.462571034481870    0.981291482789805    0.515318762308954  0.0000
  O1     O1        0.974854205056832    0.972955055607381    0.273046658043924  0.0000
  O1     O1        0.522427090774443    0.997144438938663    0.275392761027077  0.0000
  O3     O3        0.972588216742307    0.962094153046238    0.778061116368554  0.0000
  O1     O1        0.510782211317555    0.980697416556501    0.770508822577323  0.0000
  O1     O1        0.627043628039817    0.093564329804529    0.097244922889726  0.0000
  O1     O1        0.866069075826140    0.866026392002525    0.097778959804669  0.0000
  O1     O1        0.373242123059954    0.130534242122776    0.847295770747427  0.0000
  O3     O3        0.107794371937590    0.846181247192527    0.849787310778157  0.0000
  O3     O3        0.394172117113790    0.774168114932791    0.859039290249638  0.0000
  O3     O3        0.076941799000948    0.172558393333478    0.861967450632648  0.0000
  O1     O1        0.578013773562598    0.755122304690832    0.091656195736015  0.0000
  O1     O1        0.914480506388051    0.206364636987621    0.093038574870298  0.0000
  O1     O1        0.474677426521104    0.010288008113469    0.025463254836374  0.0000
  O3     O3        0.014663683601864    0.947604634756424    0.018642274509815  0.0000
  O1     O1        0.153160662527948    0.514357041790523    0.317907129667002  0.0000
  O2     O2        0.339953523039526    0.468302676713788    0.284962980758900  0.0000
  O1     O1        0.831008992272819    0.506228460410481    0.631500842218873  0.0000
  O1     O1        0.652632925156758    0.442184614170344    0.633083552284712  0.0000
  O3     O3        0.240711245585896    0.223504495976864    0.259973493361001  0.0000
  O3     O3        0.264701292053517    0.755851679108273    0.262697495834542  0.0000
  O1     O1        0.758374173611027    0.195075159545291    0.688293945629524  0.0000
  O1     O1        0.726183753738359    0.754412786819350    0.686886575028895  0.0000
  O1     O1        0.116186477056474    0.298531819346097    0.107238869226725  0.0000
  O2     O2        0.361479182762174    0.668272750038978    0.087803231768454  0.0000
  O1     O1        0.876702097906097    0.321135243732945    0.845550770917405  0.0000
  O1     O1        0.610331553275091    0.637408258884185    0.844277982598235  0.0000
  O1     O1        0.852008074840286    0.725751617821355    0.846976142507854  0.0000
  O1     O1        0.634666787932665    0.224921895529558    0.846611146587082  0.0000
  O1     O1        0.137343716013901    0.715666784199758    0.100427158264310  0.0000
  O3     O3        0.353485789034537    0.240909055390710    0.099629386264909  0.0000
  O1     O1        0.653520767099535    0.443742762613798    0.058148716354239  0.0000
  O1     O1        0.838607859225666    0.516196483310470    0.060871897529373  0.0000
  O3     O3        0.332229299269805    0.470279336684803    0.889087192640213  0.0000
  O1     O1        0.139578711931961    0.500083441528010    0.888071726894820  0.0000
  O1     O1        0.764321807081659    0.205294082157955    0.002998536212137  0.0000
  O1     O1        0.726438121878226    0.753885651134873    0.003560535630891  0.0000
  O1     O1        0.228511437530815    0.211097139121715    0.935199426625703  0.0000
  O3     O3        0.253571461897075    0.748430961762931    0.924544893340604  0.0000
