data_c00554.vasp
_audit_creation_method             Generated by GULP
_audit_author_name                 Salvador R. G. Balestra
_symmetry_space_group_name_H-M     'P 1             '
_symmetry_Int_Tables_number        1

loop_
_symmetry_equiv_pos_site_id
_symmetry_equiv_pos_as_xyz
_cell_length_a                       17.7310
_cell_length_b                        7.8777
_cell_length_c                       10.4371
_cell_angle_alpha                   90.3757
_cell_angle_beta                    90.2858
_cell_angle_gamma                   90.0695

loop_
_atom_site_label
_atom_site_type_symbol
_atom_site_fract_x
_atom_site_fract_y
_atom_site_fract_z
_atom_site_charge
  Ge     Ge        0.052090000000021    0.000000000000000    0.372269999999958  0.0000
  Ge     Ge        0.449272790068139    0.032967328008531    0.368607400510532  0.0000
  Ge     Ge        0.953881455754927    0.000465819733009    0.631462412009696  0.0000
  Ge     Ge        0.551658336133078    0.027393074286122    0.628798073362394  0.0000
  Ge     Ge        0.551100423198074    0.031164088400994    0.114343639796213  0.0000
  Ge     Ge        0.944547795673624    0.993121010356452    0.124098756698294  0.0000
  Ge     Ge        0.171510648004772    0.289341876708687    0.254136954372626  0.0000
  Ge     Ge        0.330500440000831    0.744786956382380    0.253747667325669  0.0000
  Ge     Ge        0.829874009350690    0.281170145926645    0.697269313313934  0.0000
  Ge     Ge        0.670354920493861    0.735387876054961    0.692462812979558  0.0000
  Ge     Ge        0.851996996609185    0.682518507377139    0.695404036627004  0.0000
  Ge     Ge        0.150145195633300    0.692518057970738    0.259713451126989  0.0000
  Ge     Ge        0.350092957808592    0.339352924983221    0.255460354847443  0.0000
  Ge     Ge        0.647036520852976    0.342871478371614    0.003177803271250  0.0000
  Ge     Ge        0.850416913332647    0.679616879704018    0.008728923067865  0.0000
  Ge     Ge        0.345732992745737    0.330082210699813    0.941913961426942  0.0000
  Ge     Ge        0.149436222306633    0.699921471500788    0.951233595726223  0.0000
  Ge     Ge        0.334035658166327    0.731366361408027    0.943395952639513  0.0000
  Ge     Ge        0.670781233275376    0.747937933025621    0.002529613337046  0.0000
  Ge     Ge        0.825531622789806    0.275214333582465    0.008741502479090  0.0000
  Si     Si        0.444928037721376    0.017592928698191    0.872895571374107  0.0000
  Si     Si        0.053596324503083    0.016797706339489    0.885668689023725  0.0000
  Si     Si        0.652660410219304    0.338815839163034    0.697127744225291  0.0000
  Si     Si        0.165919095091801    0.305644405418353    0.947777882442591  0.0000
  O1     O1        0.120542484026889    0.145219617846606    0.336207144404828  0.0000
  O1     O1        0.378572798478426    0.887582048413755    0.345881460392659  0.0000
  O1     O1        0.879218787488069    0.137443725104305    0.609074798261942  0.0000
  O1     O1        0.616607380449177    0.869324105378431    0.601560638925672  0.0000
  O1     O1        0.917383145519850    0.799930327327187    0.614224177864204  0.0000
  O3     O3        0.595419680931237    0.223547651963029    0.615343014440930  0.0000
  O1     O1        0.088144919639725    0.799817425704305    0.355123620772157  0.0000
  O1     O1        0.416145479888645    0.234333934441055    0.343222935958249  0.0000
  O1     O1        0.026100151711891    0.033320912789681    0.528759206590397  0.0000
  O1     O1        0.478243034928808    0.014294701012009    0.524938002752919  0.0000
  O1     O1        0.972966424127675    0.022576262889047    0.279449354660557  0.0000
  O1     O1        0.524805146659879    0.000558860425002    0.269900995272991  0.0000
  O3     O3        0.985856709146668    0.038404357205861    0.786972836769117  0.0000
  O3     O3        0.516887537473110    0.004194585828310    0.783069207653017  0.0000
  O1     O1        0.579164658231625    0.236363134217472    0.085099598392616  0.0000
  O1     O1        0.914837343112572    0.788433440015788    0.099670746753286  0.0000
  O3     O3        0.403155915202320    0.197446719088858    0.854122495884072  0.0000
  O3     O3        0.092455024506917    0.834120671958400    0.862372161262891  0.0000
  O3     O3        0.383280445065240    0.870673927959263    0.847937153487465  0.0000
  O2     O2        0.116339699031419    0.166239757589491    0.870315943489908  0.0000
  O1     O1        0.624713854255130    0.894433435798154    0.092963432802608  0.0000
  O1     O1        0.871276310257243    0.130270143194448    0.100487138669606  0.0000
  O3     O3        0.472960779357245    0.991617077377670    0.018868301113312  0.0000
  O3     O3        0.021925773206365    0.034586358584646    0.029020726856815  0.0000
  O1     O1        0.159653200611471    0.490798702144728    0.316229001947644  0.0000
  O1     O1        0.340638042720908    0.541576216484265    0.312244070224920  0.0000
  O1     O1        0.846155927462626    0.480168379722937    0.636409815905786  0.0000
  O3     O3        0.660482586430359    0.526041938595945    0.639248467435883  0.0000
  O1     O1        0.264589291043560    0.235379892777874    0.262050824112667  0.0000
  O1     O1        0.236393587702479    0.792827729186740    0.255253436974056  0.0000
  O3     O3        0.733467222132141    0.244645897927069    0.697360370121381  0.0000
  O1     O1        0.764933946309799    0.780183599392504    0.686394220426921  0.0000
  O3     O3        0.142747091734384    0.310088249085055    0.096267662719418  0.0000
  O1     O1        0.364255772276296    0.740202875332616    0.099911014548011  0.0000
  O1     O1        0.858139287832759    0.268603836494936    0.854575011907857  0.0000
  O1     O1        0.639682457166397    0.758646735743985    0.846990925776487  0.0000
  O1     O1        0.880583267321710    0.672145008550896    0.852737572821622  0.0000
  O3     O3        0.623106866899751    0.356132287841807    0.842082084750695  0.0000
  O1     O1        0.116043403845269    0.699481171737365    0.104609529357489  0.0000
  O1     O1        0.377175255373982    0.336538556003531    0.097111201454868  0.0000
  O1     O1        0.655351502814325    0.545834998511916    0.060149660890981  0.0000
  O1     O1        0.839309592232142    0.478910313960461    0.066656026320301  0.0000
  O1     O1        0.347862825620187    0.530883250342146    0.881610877372136  0.0000
  O3     O3        0.151297878425784    0.493007157995177    0.891246643669179  0.0000
  O1     O1        0.730582802007596    0.234391897169935    0.014348803683662  0.0000
  O1     O1        0.765812479170850    0.786345566296248    0.007485622001238  0.0000
  O3     O3        0.253429839937802    0.256335082512371    0.937953829030702  0.0000
  O1     O1        0.239638979423441    0.777231482342415    0.945564395917579  0.0000
