data_c00512.vasp
_audit_creation_method             Generated by GULP
_audit_author_name                 Salvador R. G. Balestra
_symmetry_space_group_name_H-M     'P 1             '
_symmetry_Int_Tables_number        1

loop_
_symmetry_equiv_pos_site_id
_symmetry_equiv_pos_as_xyz
_cell_length_a                       17.5435
_cell_length_b                        7.9069
_cell_length_c                       10.2593
_cell_angle_alpha                   92.2257
_cell_angle_beta                    90.7751
_cell_angle_gamma                   90.9957

loop_
_atom_site_label
_atom_site_type_symbol
_atom_site_fract_x
_atom_site_fract_y
_atom_site_fract_z
_atom_site_charge
  Ge     Ge        0.052090000000021    0.000000000000000    0.372269999999958  0.0000
  Ge     Ge        0.435189165545478    0.015620872467251    0.357617740230244  0.0000
  Ge     Ge        0.941175069900204    0.996533211674248    0.616645538217687  0.0000
  Ge     Ge        0.539775505372062    0.950365107215596    0.608705775267816  0.0000
  Ge     Ge        0.547087955716485    0.972819680387344    0.115000496777543  0.0000
  Ge     Ge        0.934127899189972    0.023898769686149    0.127151446571304  0.0000
  Ge     Ge        0.437379356808253    0.001125922347405    0.864810024424095  0.0000
  Ge     Ge        0.155409339771359    0.306138145449626    0.270603521248300  0.0000
  Ge     Ge        0.842952609585420    0.312045301530878    0.693673188822499  0.0000
  Ge     Ge        0.639052925165444    0.642144027787896    0.682929151614382  0.0000
  Ge     Ge        0.819905744475710    0.714278226435926    0.688604433045163  0.0000
  Ge     Ge        0.660754219921806    0.239192633519266    0.689057445290882  0.0000
  Ge     Ge        0.343026976989714    0.335799849305702    0.255708394778674  0.0000
  Ge     Ge        0.660410966014937    0.264751697202226    0.003476984645927  0.0000
  Ge     Ge        0.816811931643860    0.732812513152478    0.005384046569329  0.0000
  Ge     Ge        0.330929561683229    0.304529159605988    0.937297672333485  0.0000
  Ge     Ge        0.137506450721687    0.669448632825232    0.940334415631754  0.0000
  Ge     Ge        0.319250329620854    0.708526658653812    0.930529057587119  0.0000
  Ge     Ge        0.148078421241016    0.262116102887374    0.953545873987665  0.0000
  Ge     Ge        0.844154554245098    0.334707755816114    0.010376852868662  0.0000
  Si     Si        0.034504896258670    0.964561982903339    0.876849635352602  0.0000
  Si     Si        0.328895759678279    0.720628498109547    0.233239119368825  0.0000
  Si     Si        0.147306028185360    0.690881170209337    0.242983691830919  0.0000
  Si     Si        0.637800734056339    0.658997546424909    0.993059946430182  0.0000
  O1     O1        0.103314680987659    0.185527774497069    0.372780917512252  0.0000
  O3     O3        0.357500807449847    0.884345156827740    0.315799327532297  0.0000
  O1     O1        0.903918908920244    0.193581792669490    0.599414886308515  0.0000
  O1     O1        0.574634367352042    0.749229869710168    0.591727865009395  0.0000
  O1     O1        0.871077201515358    0.843924936998353    0.591260187315479  0.0000
  O1     O1        0.611761851148557    0.097451756312851    0.587876925848190  0.0000
  O3     O3        0.115555682350755    0.843276307507495    0.329791669300737  0.0000
  O1     O1        0.405550708799226    0.219532977531273    0.343678641282799  0.0000
  O1     O1        0.020626110368761    0.964776422687949    0.527110840947959  0.0000
  O1     O1        0.460108257455684    0.983270163026781    0.517297066402786  0.0000
  O1     O1        0.969014066989067    0.004127301999108    0.282656823496958  0.0000
  O1     O1        0.516501112102183    0.969963178719602    0.273887990309302  0.0000
  O3     O3        0.963430532837240    0.984272630597766    0.782414008217203  0.0000
  O1     O1        0.514885589193194    0.978534153259747    0.770502125202320  0.0000
  O1     O1        0.615950380827277    0.128641683234772    0.104393541386362  0.0000
  O1     O1        0.856034534002564    0.892133440365409    0.102275123761543  0.0000
  O1     O1        0.388343776874944    0.184535938572486    0.840081900326839  0.0000
  O3     O3        0.074601301453007    0.784894528478417    0.849908546088503  0.0000
  O1     O1        0.373672350671173    0.834620167392441    0.837421493283140  0.0000
  O3     O3        0.094724944879629    0.118385928154406    0.859487523440918  0.0000
  O3     O3        0.578507482311214    0.771751935703586    0.073094147407221  0.0000
  O1     O1        0.907415165264146    0.228398553843292    0.104323333933767  0.0000
  O1     O1        0.468197407895197    0.017888688748080    0.024974292656696  0.0000
  O3     O3        0.008032415329408    0.968684245571730    0.026398310605547  0.0000
  O3     O3        0.137266630218121    0.515975541823749    0.314715320185655  0.0000
  O3     O3        0.353193947320778    0.550218324794144    0.301735169154673  0.0000
  O1     O1        0.831488980181439    0.507540462216335    0.632763174689283  0.0000
  O1     O1        0.648292569368288    0.437994251219738    0.627946943650358  0.0000
  O1     O1        0.250952472100913    0.268294488809353    0.281852962844566  0.0000
  O2     O2        0.237230926792396    0.713335308852138    0.211551068468799  0.0000
  O1     O1        0.756675286135626    0.203043530526877    0.695051892674460  0.0000
  O1     O1        0.724084017639453    0.753520569334837    0.679689751672318  0.0000
  O1     O1        0.121785332404777    0.261115613628759    0.114622048675022  0.0000
  O3     O3        0.359939170783262    0.727386157515658    0.086999374445460  0.0000
  O1     O1        0.875500560579341    0.336108538890182    0.852309498896966  0.0000
  O3     O3        0.609467125189954    0.633809896281783    0.843811651966334  0.0000
  O1     O1        0.849874613444896    0.737091511966920    0.849019062112632  0.0000
  O1     O1        0.627356321711967    0.231066558317878    0.846417616967154  0.0000
  O3     O3        0.107355482674780    0.677972790257287    0.101776242231699  0.0000
  O1     O1        0.366101132462484    0.317530293613879    0.094948559637679  0.0000
  O3     O3        0.645611273393369    0.475326843420218    0.053120988745454  0.0000
  O1     O1        0.837297825075682    0.540089757706534    0.068434703759330  0.0000
  O1     O1        0.323055867890680    0.501078367709342    0.875871343367479  0.0000
  O1     O1        0.137123589156309    0.460635532327434    0.891731383345109  0.0000
  O1     O1        0.756628164994426    0.233408859940145    0.010004358850420  0.0000
  O3     O3        0.719058139709277    0.757126540037765    0.996779942390412  0.0000
  O1     O1        0.242050407086626    0.210501170279259    0.946901270484626  0.0000
  O1     O1        0.225396952158593    0.763600250074646    0.924431183385273  0.0000
