data_c00597.vasp
_audit_creation_method             Generated by GULP
_audit_author_name                 Salvador R. G. Balestra
_symmetry_space_group_name_H-M     'P 1             '
_symmetry_Int_Tables_number        1

loop_
_symmetry_equiv_pos_site_id
_symmetry_equiv_pos_as_xyz
_cell_length_a                       17.7847
_cell_length_b                        7.8438
_cell_length_c                       10.3776
_cell_angle_alpha                   91.5980
_cell_angle_beta                    90.6996
_cell_angle_gamma                   90.1145

loop_
_atom_site_label
_atom_site_type_symbol
_atom_site_fract_x
_atom_site_fract_y
_atom_site_fract_z
_atom_site_charge
  Ge     Ge        0.052090000000021    0.000000000000000    0.372269999999958  0.0000
  Ge     Ge        0.448477092530711    0.032671385417391    0.371687562399381  0.0000
  Ge     Ge        0.945674907267035    0.967437770939959    0.625501410180443  0.0000
  Ge     Ge        0.552631252745354    0.003539174220111    0.626219421427483  0.0000
  Ge     Ge        0.550036839880733    0.022160860735732    0.114810624340811  0.0000
  Ge     Ge        0.440832540515069    0.017638821725321    0.864152641431303  0.0000
  Ge     Ge        0.167216512333243    0.289987624549092    0.298399563781641  0.0000
  Ge     Ge        0.326686450605548    0.748595266019189    0.296020779142333  0.0000
  Ge     Ge        0.826404692918550    0.256752224000613    0.737118799191370  0.0000
  Ge     Ge        0.668255880262118    0.712441796656075    0.733940965280744  0.0000
  Ge     Ge        0.848734951937879    0.659064229015599    0.724923336443369  0.0000
  Ge     Ge        0.347624759347166    0.343273674061611    0.297373157529760  0.0000
  Ge     Ge        0.654719491502918    0.334468429957051    0.055386850812724  0.0000
  Ge     Ge        0.853391287291949    0.689401967521522    0.039088974848942  0.0000
  Ge     Ge        0.344638996915466    0.332319573935849    0.982254882466123  0.0000
  Ge     Ge        0.142776877071068    0.681735056213534    0.987911077904998  0.0000
  Ge     Ge        0.322340517181088    0.740876387463265    0.983087459230384  0.0000
  Ge     Ge        0.163648596952925    0.273981298924690    0.986233443085482  0.0000
  Ge     Ge        0.672472250912146    0.740551875209992    0.045430290407524  0.0000
  Ge     Ge        0.833970220901515    0.284344138536865    0.052326518825754  0.0000
  Si     Si        0.950986346965708    0.005070242780994    0.118254407417749  0.0000
  Si     Si        0.049971878983544    0.987852388184214    0.876372614995691  0.0000
  Si     Si        0.651382885094647    0.313227799843926    0.746076440686970  0.0000
  Si     Si        0.150497174205448    0.689102133947782    0.294499601535808  0.0000
  O1     O1        0.116699412521653    0.161465313306184    0.396258794454040  0.0000
  O1     O1        0.375742752824304    0.890022632580378    0.391959280558466  0.0000
  O1     O1        0.870215635922088    0.099013453791416    0.652430189579723  0.0000
  O1     O1        0.614853551941924    0.838915316606501    0.637184869181243  0.0000
  O1     O1        0.912130715273265    0.763999421201766    0.632223751738688  0.0000
  O3     O3        0.589654983016281    0.200618057434295    0.670601553465142  0.0000
  O3     O3        0.095176661392337    0.802851167574285    0.381956311755907  0.0000
  O1     O1        0.411094174512651    0.233188301981308    0.388189909785691  0.0000
  O1     O1        0.979231915826266    0.010468803254299    0.475867888185968  0.0000
  O1     O1        0.525834011406590    0.007222334880155    0.466345634480407  0.0000
  O3     O3        0.018958032597722    0.028402551445607    0.216743050098276  0.0000
  O1     O1        0.476589726705673    0.996612510759438    0.214321530661816  0.0000
  O3     O3        0.020015353266764    0.002584098085188    0.731687403970841  0.0000
  O1     O1        0.470615808907436    0.981506264390834    0.709071721665802  0.0000
  O1     O1        0.587928290876382    0.224357655592241    0.134667193088531  0.0000
  O3     O3        0.914918787984266    0.818114402577125    0.127935584756553  0.0000
  O1     O1        0.408101555065225    0.221620456109520    0.890733464783214  0.0000
  O3     O3        0.076741825845725    0.796259182103676    0.904053789904114  0.0000
  O1     O1        0.367765731101662    0.879756549742622    0.888388108810566  0.0000
  O3     O3        0.117845773219321    0.120750943346279    0.892711681552611  0.0000
  O1     O1        0.623126447553926    0.881673629290232    0.138405703386324  0.0000
  O3     O3        0.887267430530236    0.147082226437376    0.142522375774431  0.0000
  O1     O1        0.518011104989260    0.982760494239036    0.959857683227226  0.0000
  O2     O2        0.981511108948661    0.034066638221163    0.973072660843516  0.0000
  O3     O3        0.159691300560419    0.502483309212288    0.350859864851379  0.0000
  O1     O1        0.341968429300113    0.548523406510520    0.354248269122395  0.0000
  O1     O1        0.841694290580465    0.451943890050452    0.670333343039412  0.0000
  O3     O3        0.658741047847407    0.498601593271539    0.685819791774725  0.0000
  O1     O1        0.261218657764724    0.243133944532028    0.301999372504782  0.0000
  O3     O3        0.230697322205060    0.785789363776020    0.292095350221941  0.0000
  O3     O3        0.730694074166184    0.214544603896683    0.739070093067254  0.0000
  O1     O1        0.762112041424163    0.757229666476362    0.721562753424688  0.0000
  O1     O1        0.134780699004398    0.266246958967116    0.142616605185338  0.0000
  O1     O1        0.355877898995707    0.757236076205879    0.138860482431253  0.0000
  O1     O1        0.858200399570123    0.271101709983286    0.893178701928537  0.0000
  O1     O1        0.638819249095128    0.743666316375818    0.888864421985415  0.0000
  O1     O1        0.881326563714406    0.669223664447316    0.882042896332298  0.0000
  O3     O3        0.627800834553102    0.337736172418095    0.894069041329688  0.0000
  O3     O3        0.118295593282405    0.672382516572925    0.148881774660757  0.0000
  O1     O1        0.376588521465291    0.340296765155582    0.139487653157573  0.0000
  O1     O1        0.661892234581787    0.540976057344364    0.109019683962364  0.0000
  O1     O1        0.848235119044852    0.492404793730154    0.105422335856015  0.0000
  O1     O1        0.335043746238757    0.534362017793194    0.926856113221877  0.0000
  O1     O1        0.146578403447084    0.475548042857074    0.929536226406120  0.0000
  O1     O1        0.740585637412728    0.235536787508920    0.068139770399126  0.0000
  O1     O1        0.766603435762055    0.785786104964632    0.040492799849952  0.0000
  O1     O1        0.258088127368402    0.233556150681024    0.979762143991118  0.0000
  O1     O1        0.227655273799215    0.782252809225620    0.978279690027016  0.0000
