data_c00547.vasp
_audit_creation_method             Generated by GULP
_audit_author_name                 Salvador R. G. Balestra
_symmetry_space_group_name_H-M     'P 1             '
_symmetry_Int_Tables_number        1

loop_
_symmetry_equiv_pos_site_id
_symmetry_equiv_pos_as_xyz
_cell_length_a                       17.4729
_cell_length_b                        7.8386
_cell_length_c                       10.3388
_cell_angle_alpha                   89.6686
_cell_angle_beta                    90.5736
_cell_angle_gamma                   87.8192

loop_
_atom_site_label
_atom_site_type_symbol
_atom_site_fract_x
_atom_site_fract_y
_atom_site_fract_z
_atom_site_charge
  Ge     Ge        0.052090000000021    0.000000000000000    0.372269999999958  0.0000
  Ge     Ge        0.440860772585338    0.948304803737199    0.361516615566954  0.0000
  Ge     Ge        0.951566534804160    0.939468585842915    0.627113212839653  0.0000
  Ge     Ge        0.541293554331831    0.004674240654751    0.619156218244943  0.0000
  Ge     Ge        0.547765037118625    0.009090956028907    0.115806512961227  0.0000
  Ge     Ge        0.942243079613693    0.938342585871503    0.125452943212079  0.0000
  Ge     Ge        0.142518582576000    0.313712245056531    0.256477800981702  0.0000
  Ge     Ge        0.355610162719916    0.626360326023885    0.249182420409158  0.0000
  Ge     Ge        0.824199545817526    0.227014059688169    0.694734438562702  0.0000
  Ge     Ge        0.668576721265448    0.717289357106504    0.689226241362864  0.0000
  Ge     Ge        0.850379867637400    0.629091312354904    0.692090365049630  0.0000
  Ge     Ge        0.642446315091455    0.316176877390052    0.687111309386413  0.0000
  Ge     Ge        0.172834042488796    0.708199474921475    0.256097976855229  0.0000
  Ge     Ge        0.638819657259643    0.321815219971079    0.001911222897558  0.0000
  Ge     Ge        0.851861833609951    0.626733830373311    0.007200721339153  0.0000
  Ge     Ge        0.326246363429711    0.241515963995420    0.940954313162133  0.0000
  Ge     Ge        0.345577333384515    0.640819929797966    0.935930792904296  0.0000
  Ge     Ge        0.141664297101576    0.307616598711628    0.945071227224664  0.0000
  Ge     Ge        0.669843180408288    0.721446829186573    0.004146431954325  0.0000
  Ge     Ge        0.820794835151182    0.226398979318933    0.009312314818524  0.0000
  Si     Si        0.443267387824705    0.946364865758513    0.871268972623898  0.0000
  Si     Si        0.047578109325147    0.996590264635230    0.884336443215350  0.0000
  Si     Si        0.324386903279476    0.237094808388484    0.247295513684773  0.0000
  Si     Si        0.164042839663972    0.700439463856738    0.948413969362818  0.0000
  O1     O1        0.079930127779170    0.205187277612272    0.348564458821240  0.0000
  O1     O1        0.420304184934857    0.738407892995658    0.336117532202125  0.0000
  O1     O1        0.877064687959928    0.086534749106515    0.603048495545512  0.0000
  O1     O1        0.615963189688489    0.859363270927849    0.595236828547630  0.0000
  O1     O1        0.916681321450898    0.739731536379177    0.607617254916559  0.0000
  O1     O1        0.575739889558741    0.205298105270122    0.602468019920591  0.0000
  O1     O1        0.130446016108092    0.870974467692767    0.338920731106372  0.0000
  O3     O3        0.362390767785117    0.082752601620916    0.329129215280037  0.0000
  O1     O1        0.027659264377479    0.975720129014459    0.531820546250305  0.0000
  O1     O1        0.464677888603286    0.971757304345546    0.521737601253996  0.0000
  O1     O1        0.973374847621797    0.947792684361486    0.283164633483808  0.0000
  O1     O1        0.518940201880193    0.001670310223413    0.273524760684527  0.0000
  O3     O3        0.978996292992551    0.957100773767468    0.789193313568166  0.0000
  O3     O3        0.513706019648572    0.977128797110829    0.779669689701693  0.0000
  O1     O1        0.570089705454779    0.215827379934899    0.082953217921073  0.0000
  O1     O1        0.919070736180764    0.732051669829279    0.094158274519649  0.0000
  O3     O3        0.377610287164087    0.094484952611359    0.851589836646338  0.0000
  O2     O2        0.115098076989105    0.848342418278333    0.871904475014650  0.0000
  O3     O3        0.404005500345396    0.766490179142933    0.845105192222598  0.0000
  O3     O3        0.081721968758578    0.180985974308528    0.855050284283799  0.0000
  O1     O1        0.626499598252563    0.874911855304822    0.097244102105551  0.0000
  O1     O1        0.863695355627862    0.073394197949096    0.106358505861998  0.0000
  O3     O3        0.472515955610471    0.944717044892433    0.019783094431004  0.0000
  O3     O3        0.017248422491709    0.001476758566894    0.030839634854703  0.0000
  O1     O1        0.150294494947437    0.513148430802105    0.319760774527330  0.0000
  O3     O3        0.345662152158729    0.420044007959095    0.306797387859092  0.0000
  O1     O1        0.837363281341633    0.429599593286208    0.633309232744292  0.0000
  O1     O1        0.655892664356065    0.515620164362986    0.626960068451000  0.0000
  O3     O3        0.233589588545879    0.217739596836723    0.245723976209230  0.0000
  O1     O1        0.268766475404842    0.734875496873037    0.260498598340961  0.0000
  O1     O1        0.727444726603753    0.195739498695960    0.688634322634518  0.0000
  O1     O1        0.765227381617891    0.748995612643094    0.688402153588777  0.0000
  O1     O1        0.108795620522013    0.317276904045665    0.099958231082037  0.0000
  O1     O1        0.381713420664192    0.622265080348945    0.090373290882678  0.0000
  O1     O1        0.853931501268103    0.210340640987655    0.853716759042715  0.0000
  O1     O1        0.637966420796856    0.733607493926290    0.846589567928752  0.0000
  O1     O1        0.880607813575647    0.604901867692561    0.850024037602108  0.0000
  O1     O1        0.611421898168009    0.343506125941465    0.842935703332342  0.0000
  O3     O3        0.139302866004786    0.699990911856069    0.097642366371152  0.0000
  O3     O3        0.356454589740837    0.232876073512178    0.101466286124684  0.0000
  O1     O1        0.651258124069645    0.520868227778974    0.064037729842430  0.0000
  O1     O1        0.839014436606659    0.426615738438857    0.068572170822150  0.0000
  O1     O1        0.342184193479608    0.439632789193708    0.875441360074640  0.0000
  O3     O3        0.147690281891738    0.515577074922304    0.887561180296392  0.0000
  O1     O1        0.723731526244942    0.202880753026897    0.007722531953552  0.0000
  O1     O1        0.766946268059872    0.745553596069657    0.007663084659845  0.0000
  O1     O1        0.230585338228415    0.208401373553744    0.936126103845365  0.0000
  O3     O3        0.253866941430257    0.734339928377764    0.941016529208387  0.0000
