data_c00561.vasp
_audit_creation_method             Generated by GULP
_audit_author_name                 Salvador R. G. Balestra
_symmetry_space_group_name_H-M     'P 1             '
_symmetry_Int_Tables_number        1

loop_
_symmetry_equiv_pos_site_id
_symmetry_equiv_pos_as_xyz
_cell_length_a                       17.5503
_cell_length_b                        7.8308
_cell_length_c                       10.2324
_cell_angle_alpha                   91.2098
_cell_angle_beta                    90.0548
_cell_angle_gamma                   91.6581

loop_
_atom_site_label
_atom_site_type_symbol
_atom_site_fract_x
_atom_site_fract_y
_atom_site_fract_z
_atom_site_charge
  Ge     Ge        0.052090000000021    0.000000000000000    0.372269999999958  0.0000
  Ge     Ge        0.442090594288623    0.059752980181381    0.339461389593501  0.0000
  Ge     Ge        0.945317056202264    0.030927407203019    0.624950636793799  0.0000
  Ge     Ge        0.547641785359614    0.985136594500313    0.588501996278787  0.0000
  Ge     Ge        0.537770373305745    0.985413994368823    0.075491418753183  0.0000
  Ge     Ge        0.939944970287623    0.047227793129425    0.128064386382794  0.0000
  Ge     Ge        0.166453067818351    0.296828926393281    0.262675512630271  0.0000
  Ge     Ge        0.321051326548212    0.772774571166909    0.254618986289574  0.0000
  Ge     Ge        0.845311907016829    0.347852525990106    0.692145978410950  0.0000
  Ge     Ge        0.637471480760122    0.666362570874154    0.697048464018495  0.0000
  Ge     Ge        0.820148369870508    0.747318458198013    0.694470885563428  0.0000
  Ge     Ge        0.348571458245221    0.372323942761391    0.262009121544332  0.0000
  Ge     Ge        0.666474432408899    0.271033744486056    0.009856972055275  0.0000
  Ge     Ge        0.818117748013270    0.757902726933975    0.012066859414197  0.0000
  Ge     Ge        0.344611326432760    0.345633831919603    0.945597884943672  0.0000
  Ge     Ge        0.140467933713927    0.672792870767607    0.938167968184771  0.0000
  Ge     Ge        0.321982760968889    0.751307565147964    0.936111262586329  0.0000
  Ge     Ge        0.160234538130713    0.270720189593986    0.948987247768655  0.0000
  Ge     Ge        0.636871880232824    0.671724668808085    0.012872087248542  0.0000
  Ge     Ge        0.846657337405933    0.354613838701914    0.011278234489750  0.0000
  Si     Si        0.436867055508332    0.037216725849280    0.824183777934454  0.0000
  Si     Si        0.041961984530244    0.977890407371180    0.880383904884727  0.0000
  Si     Si        0.666637588773316    0.273143560209995    0.698591082652763  0.0000
  Si     Si        0.144160185728550    0.690496885849880    0.249862727119346  0.0000
  O1     O1        0.120850254306053    0.158542722798410    0.365385926016352  0.0000
  O1     O1        0.364878103539931    0.920257268196422    0.355427394701621  0.0000
  O1     O1        0.909224046306023    0.230220269857982    0.605222313354494  0.0000
  O1     O1        0.574168769516996    0.778662345535616    0.606058398669427  0.0000
  O1     O1        0.870281450304183    0.888443669949160    0.600538749238960  0.0000
  O3     O3        0.623758513984646    0.124596790131585    0.615572572167068  0.0000
  O3     O3        0.082355202314489    0.799385068966875    0.326352421801810  0.0000
  O1     O1        0.411234828345248    0.264351032522744    0.357064641656086  0.0000
  O1     O1        0.022996062185354    0.990392435440408    0.532713209898028  0.0000
  O1     O1        0.519560556112000    0.012060833738205    0.428769097295900  0.0000
  O1     O1        0.971836127986853    0.046494581646023    0.286194112782590  0.0000
  O1     O1        0.465072352316722    0.033647973978547    0.175180217724245  0.0000
  O3     O3        0.971574161269315    0.014167876309128    0.788972449407991  0.0000
  O3     O3        0.466221035735538    0.033701217311253    0.675567269122016  0.0000
  O1     O1        0.614016494884826    0.127637921695248    0.095762963892883  0.0000
  O1     O1        0.862997811594603    0.909494662219389    0.109233659918012  0.0000
  O3     O3        0.408504945246110    0.226402565463718    0.857617277227678  0.0000
  O3     O3        0.073694254515748    0.788056991883237    0.856472386395183  0.0000
  O3     O3        0.368060538538193    0.899451949268834    0.840170952137497  0.0000
  O3     O3        0.110626293345880    0.116279088486049    0.858638737722349  0.0000
  O1     O1        0.571332949666807    0.784503867666063    0.100514780773268  0.0000
  O1     O1        0.914667744097309    0.252250697515604    0.096457414319609  0.0000
  O3     O3        0.508298518360157    0.991001465898639    0.913345721991851  0.0000
  O3     O3        0.015525620755817    0.986614099333928    0.031063984537007  0.0000
  O3     O3        0.155853189054699    0.508272565423999    0.315443933380697  0.0000
  O1     O1        0.339720582163477    0.576247247716634    0.318448163530314  0.0000
  O1     O1        0.837138215182886    0.545931639686759    0.630626126508317  0.0000
  O3     O3        0.649718667821362    0.458395180561727    0.639628824246113  0.0000
  O1     O1        0.262066628910846    0.261828858387075    0.260907029913317  0.0000
  O3     O3        0.223495064663401    0.800255441425409    0.249566854461984  0.0000
  O3     O3        0.756602751283343    0.242077825646300    0.695124640647109  0.0000
  O1     O1        0.723823784810151    0.775275412342457    0.691411692497188  0.0000
  O1     O1        0.129677486872765    0.262022751482868    0.108613717032307  0.0000
  O1     O1        0.352813514119891    0.777214970293349    0.095034630873196  0.0000
  O1     O1        0.875110206126644    0.368155292606631    0.851598250659176  0.0000
  O1     O1        0.604869946491755    0.657730046210663    0.853432636830325  0.0000
  O1     O1        0.850865126784417    0.766228936228482    0.854205617988140  0.0000
  O3     O3        0.637626583363060    0.269208424725233    0.847390576025192  0.0000
  O3     O3        0.117899833993433    0.650097468684578    0.102029348121908  0.0000
  O1     O1        0.378513709085737    0.375415924534465    0.101643428490307  0.0000
  O1     O1        0.649721045433974    0.473640116536957    0.072554735250722  0.0000
  O1     O1        0.833494850449624    0.556914717576833    0.071615380080936  0.0000
  O1     O1        0.336847383355373    0.545315019946440    0.881325469932354  0.0000
  O1     O1        0.144524435001630    0.467027212416429    0.880770194155845  0.0000
  O1     O1        0.761887390627048    0.236846167974290    0.019030687393265  0.0000
  O1     O1        0.721810438800085    0.787793956161573    0.011042865869274  0.0000
  O1     O1        0.256840458298650    0.242002341998965    0.947353258149311  0.0000
  O1     O1        0.225972214982058    0.782348962651460    0.927153317986638  0.0000
