data_c00508.vasp
_audit_creation_method             Generated by GULP
_audit_author_name                 Salvador R. G. Balestra
_symmetry_space_group_name_H-M     'P 1             '
_symmetry_Int_Tables_number        1

loop_
_symmetry_equiv_pos_site_id
_symmetry_equiv_pos_as_xyz
_cell_length_a                       17.5693
_cell_length_b                        7.8357
_cell_length_c                       10.2389
_cell_angle_alpha                   90.2469
_cell_angle_beta                    91.0142
_cell_angle_gamma                   88.0492

loop_
_atom_site_label
_atom_site_type_symbol
_atom_site_fract_x
_atom_site_fract_y
_atom_site_fract_z
_atom_site_charge
  Ge     Ge        0.052090000000021    0.000000000000000    0.372269999999958  0.0000
  Ge     Ge        0.439745423951148    0.943782292720805    0.303114637474414  0.0000
  Ge     Ge        0.943798196362358    0.943472484646931    0.617308433846910  0.0000
  Ge     Ge        0.540895217879449    0.001087875839041    0.563931277794760  0.0000
  Ge     Ge        0.545883997218763    0.996844655222062    0.053757669395270  0.0000
  Ge     Ge        0.939508118563532    0.941608517210442    0.122435276167831  0.0000
  Ge     Ge        0.434211511352138    0.944349221166274    0.807246572645655  0.0000
  Ge     Ge        0.143957546051802    0.313615292371733    0.256916092172565  0.0000
  Ge     Ge        0.818389302606684    0.228559440931789    0.683991223579115  0.0000
  Ge     Ge        0.666230831807645    0.712532872780974    0.685581146068636  0.0000
  Ge     Ge        0.846627251925385    0.630138395577125    0.685444761811952  0.0000
  Ge     Ge        0.635983711771898    0.310858908553127    0.679631792578397  0.0000
  Ge     Ge        0.168064017957600    0.709398844049320    0.253408937371820  0.0000
  Ge     Ge        0.637927204030041    0.317610697915758    0.995067838858787  0.0000
  Ge     Ge        0.845709661251187    0.629403046781893    0.004173335012699  0.0000
  Ge     Ge        0.314572334374807    0.232842315951931    0.932105447433829  0.0000
  Ge     Ge        0.158216062500047    0.717846821107560    0.938248177854237  0.0000
  Ge     Ge        0.340504616549534    0.639480006110834    0.930261841541523  0.0000
  Ge     Ge        0.133869378297212    0.315928702047862    0.937812814161718  0.0000
  Ge     Ge        0.819588237960293    0.229099864514667    0.000980954326369  0.0000
  Si     Si        0.038109679309871    0.007585879843702    0.874236439884001  0.0000
  Si     Si        0.346580067155867    0.630971484834483    0.236814769959646  0.0000
  Si     Si        0.322744259041011    0.240236199223012    0.241424899774726  0.0000
  Si     Si        0.667371621660279    0.707834125527777    0.997153671048505  0.0000
  O1     O1        0.080591436451550    0.203512186046617    0.344942721703019  0.0000
  O3     O3        0.401812053539470    0.743160418262718    0.325907446845801  0.0000
  O1     O1        0.868992053616092    0.086305765800121    0.589065437636120  0.0000
  O1     O1        0.617234823380421    0.866826836761448    0.600505633945996  0.0000
  O1     O1        0.911960510662048    0.740430476010176    0.599130639271481  0.0000
  O1     O1        0.569020893951658    0.206307729606282    0.588853362284920  0.0000
  O1     O1        0.130165190041451    0.867071368728379    0.349187400197603  0.0000
  O3     O3        0.371520278857047    0.107295800064754    0.329215696280721  0.0000
  O1     O1        0.022731580076035    0.982907806661757    0.530775223534109  0.0000
  O1     O1        0.516796461316821    0.973405559280701    0.401255756870814  0.0000
  O1     O1        0.973653512091392    0.947768851995767    0.280189140330443  0.0000
  O1     O1        0.469615017891233    0.949890422227760    0.144417754140719  0.0000
  O3     O3        0.967060266697829    0.968524817247079    0.783090504541402  0.0000
  O1     O1        0.460215984487196    0.953475836551120    0.646575850538204  0.0000
  O1     O1        0.577679105649511    0.198761072934541    0.084800752106510  0.0000
  O1     O1        0.910888703039678    0.737409704883683    0.094330302630394  0.0000
  O1     O1        0.359503993287003    0.085350045649589    0.836206549933647  0.0000
  O3     O3        0.106758622299193    0.869433219069325    0.849434176684608  0.0000
  O1     O1        0.405513061595199    0.741273966873344    0.840088915665450  0.0000
  O3     O3        0.067537949072592    0.197986998736101    0.852816752650608  0.0000
  O3     O3        0.621175447949962    0.849613303631894    0.078567158660674  0.0000
  O1     O1        0.862652022942961    0.078872192972992    0.100250397728393  0.0000
  O1     O1        0.514962424719271    0.993687808826614    0.893144583447480  0.0000
  O3     O3        0.014107628196010    0.996966829350114    0.025547764257242  0.0000
  O1     O1        0.150355674996718    0.514907164702830    0.320793208843064  0.0000
  O2     O2        0.337961195563142    0.436630085140313    0.287164979282430  0.0000
  O1     O1        0.833716996510097    0.430861423001565    0.624535157014037  0.0000
  O1     O1        0.648825462765607    0.513184251260830    0.622266624169065  0.0000
  O3     O3        0.233360135967007    0.210435079831224    0.254170780683548  0.0000
  O3     O3        0.264699946459562    0.728683252691861    0.235530674199174  0.0000
  O1     O1        0.722294736080678    0.198172197447882    0.677618760344235  0.0000
  O1     O1        0.761628629501282    0.747519236041315    0.680500668553400  0.0000
  O1     O1        0.110738088629114    0.335858782481246    0.099544580571262  0.0000
  O3     O3        0.375922280208232    0.626185476723393    0.089466667826845  0.0000
  O1     O1        0.851074368466695    0.215389938607362    0.843396903181499  0.0000
  O3     O3        0.637903174411385    0.712291439177104    0.847145439842744  0.0000
  O1     O1        0.875783372314247    0.614515451246041    0.846266833623255  0.0000
  O1     O1        0.604295721530229    0.326826327244241    0.836967806204899  0.0000
  O1     O1        0.129838863232281    0.726257732691365    0.098238491258817  0.0000
  O3     O3        0.348387870812554    0.214923467399827    0.092170072307981  0.0000
  O3     O3        0.651178663307913    0.520642261089456    0.055390197812675  0.0000
  O1     O1        0.837984264749100    0.428359965624049    0.064363547279811  0.0000
  O1     O1        0.329375635229264    0.435263894662816    0.875295870112563  0.0000
  O1     O1        0.140565175069996    0.516683014681985    0.876052361321170  0.0000
  O1     O1        0.723424660675330    0.204915205350462    0.994220655647661  0.0000
  O3     O3        0.757223341039144    0.737394926547329    0.003637943471228  0.0000
  O1     O1        0.218976915992028    0.202005127455071    0.930318058911617  0.0000
  O1     O1        0.253907902355596    0.749278241263922    0.926289071716480  0.0000
