data_c00544.vasp
_audit_creation_method             Generated by GULP
_audit_author_name                 Salvador R. G. Balestra
_symmetry_space_group_name_H-M     'P 1             '
_symmetry_Int_Tables_number        1

loop_
_symmetry_equiv_pos_site_id
_symmetry_equiv_pos_as_xyz
_cell_length_a                       17.6128
_cell_length_b                        7.8028
_cell_length_c                       10.2800
_cell_angle_alpha                   89.4349
_cell_angle_beta                    90.4233
_cell_angle_gamma                   91.0212

loop_
_atom_site_label
_atom_site_type_symbol
_atom_site_fract_x
_atom_site_fract_y
_atom_site_fract_z
_atom_site_charge
  Ge     Ge        0.052090000000021    0.000000000000000    0.372269999999958  0.0000
  Ge     Ge        0.443502636579788    0.051182870359154    0.400563975331031  0.0000
  Ge     Ge        0.946201808184647    0.069605594875425    0.622191963437396  0.0000
  Ge     Ge        0.544048045611018    0.019181299962047    0.661169117482557  0.0000
  Ge     Ge        0.555612792724865    0.013683178885315    0.160133975467489  0.0000
  Ge     Ge        0.951987126325584    0.074622765713223    0.112327415965789  0.0000
  Ge     Ge        0.174661698981124    0.281379722833240    0.290219252133342  0.0000
  Ge     Ge        0.327771215480194    0.755765649867448    0.297321641057978  0.0000
  Ge     Ge        0.850703159536271    0.381710008754841    0.735725008237561  0.0000
  Ge     Ge        0.643625601573015    0.703172649454497    0.730186546405960  0.0000
  Ge     Ge        0.822619759808557    0.785326610402904    0.727528611172036  0.0000
  Ge     Ge        0.670822494123824    0.296893220513910    0.736619645834411  0.0000
  Ge     Ge        0.146256955916455    0.683108166563961    0.299981558739748  0.0000
  Ge     Ge        0.672193653264155    0.309888988372761    0.051767479720566  0.0000
  Ge     Ge        0.825274665664646    0.791260583221095    0.043422395909019  0.0000
  Ge     Ge        0.348630031741718    0.381310960765201    0.970187696323069  0.0000
  Ge     Ge        0.147110992164047    0.709585473405488    0.984878316251516  0.0000
  Ge     Ge        0.330132183763557    0.783680144121034    0.984810101779788  0.0000
  Ge     Ge        0.169346141666265    0.301822061747114    0.971824670873980  0.0000
  Ge     Ge        0.852184887892817    0.391160372389360    0.054397425375385  0.0000
  Si     Si        0.448540275639792    0.073311050617004    0.917022837517425  0.0000
  Si     Si        0.052477054713679    0.016713373652542    0.864022005926970  0.0000
  Si     Si        0.349866442555504    0.362845110519643    0.282425789543831  0.0000
  Si     Si        0.648876458047265    0.709288246765342    0.040187071167027  0.0000
  O1     O1        0.130593127388037    0.133728157686372    0.387058210624976  0.0000
  O1     O1        0.374330896480109    0.895458094216046    0.398381095374519  0.0000
  O1     O1        0.918946776413626    0.274199026224539    0.652613599061493  0.0000
  O1     O1        0.575012626358277    0.812476275034443    0.646864732386120  0.0000
  O1     O1        0.870415192003150    0.931508369561716    0.632853822108444  0.0000
  O1     O1        0.620656923977588    0.156375330673013    0.641927612693336  0.0000
  O1     O1        0.082774807566665    0.794100407952147    0.391898485546029  0.0000
  O3     O3        0.415397718381548    0.251787908837964    0.347252610535854  0.0000
  O1     O1        0.977594983346290    0.057132300939705    0.463906133373195  0.0000
  O1     O1        0.470815840533558    0.068452691470058    0.561353492516250  0.0000
  O1     O1        0.025112994876284    0.022121377699948    0.210132418547226  0.0000
  O1     O1        0.522986681567922    0.996055875547282    0.316436510061643  0.0000
  O3     O3        0.023971311884196    0.010903930147689    0.715445043697839  0.0000
  O3     O3        0.517156469479897    0.038804734118430    0.823103687524629  0.0000
  O1     O1        0.624080521803775    0.171961932229153    0.153197645909767  0.0000
  O1     O1        0.873932115374704    0.940160917179177    0.131725444804634  0.0000
  O3     O3        0.417020195810791    0.264695156903972    0.893980052582240  0.0000
  O3     O3        0.080766253990742    0.828005006324936    0.901473257351431  0.0000
  O3     O3        0.379522288051096    0.937164017911242    0.896184396107299  0.0000
  O3     O3        0.120483583082188    0.155540677963396    0.877607253082523  0.0000
  O3     O3        0.588139083497955    0.813182527348052    0.120620121170798  0.0000
  O1     O1        0.920086562904859    0.278760840426168    0.137053669989316  0.0000
  O3     O3        0.477299226248132    0.063276866635786    0.065912109675663  0.0000
  O3     O3        0.981223821163413    0.068262242462529    0.950907869942808  0.0000
  O1     O1        0.155932634348127    0.478871341201708    0.355512769770758  0.0000
  O3     O3        0.340186173939495    0.545149590140309    0.351635402019827  0.0000
  O1     O1        0.836786496358308    0.581406331690130    0.670088731556063  0.0000
  O1     O1        0.655269244495346    0.500858264814563    0.675210151994030  0.0000
  O3     O3        0.271868238625071    0.251035362568826    0.288991862642783  0.0000
  O1     O1        0.232316816845534    0.791780203689143    0.298782512546568  0.0000
  O1     O1        0.766847906057502    0.263504931370882    0.732797875799430  0.0000
  O1     O1        0.726945948136733    0.821236485852082    0.721197141436928  0.0000
  O1     O1        0.142456004775236    0.276046251365445    0.131385289107032  0.0000
  O1     O1        0.361785045856557    0.792162044951816    0.143235211229940  0.0000
  O1     O1        0.878058664691582    0.411649986537849    0.893682952388462  0.0000
  O3     O3        0.619801640531552    0.683795764686028    0.893435896468440  0.0000
  O1     O1        0.855174533743851    0.803528771855171    0.884806354947996  0.0000
  O1     O1        0.640762932662799    0.279773160842450    0.895585564984395  0.0000
  O1     O1        0.115756960417355    0.677831261696843    0.140461612495263  0.0000
  O3     O3        0.367853566490414    0.412058517325123    0.133978825569147  0.0000
  O3     O3        0.661348620889013    0.521494641621083    0.100899051688757  0.0000
  O1     O1        0.843502689751580    0.593601640815802    0.112347948201666  0.0000
  O1     O1        0.344090383749946    0.587012561595080    0.913020998046422  0.0000
  O1     O1        0.154651520157983    0.509016026947593    0.919197706303680  0.0000
  O1     O1        0.767897556099787    0.275622583191322    0.059551294296931  0.0000
  O3     O3        0.727805285808797    0.818627192510612    0.041244664079220  0.0000
  O1     O1        0.264716322253971    0.268319706773331    0.956999838386193  0.0000
  O1     O1        0.233694363756918    0.815213009327215    0.984198966300843  0.0000
