data_c00549.vasp
_audit_creation_method             Generated by GULP
_audit_author_name                 Salvador R. G. Balestra
_symmetry_space_group_name_H-M     'P 1             '
_symmetry_Int_Tables_number        1

loop_
_symmetry_equiv_pos_site_id
_symmetry_equiv_pos_as_xyz
_cell_length_a                       17.4841
_cell_length_b                        7.8255
_cell_length_c                       10.3381
_cell_angle_alpha                   89.7010
_cell_angle_beta                    90.6946
_cell_angle_gamma                   88.2612

loop_
_atom_site_label
_atom_site_type_symbol
_atom_site_fract_x
_atom_site_fract_y
_atom_site_fract_z
_atom_site_charge
  Ge     Ge        0.052090000000021    0.000000000000000    0.372269999999958  0.0000
  Ge     Ge        0.442584656064397    0.953002304092730    0.370060597398292  0.0000
  Ge     Ge        0.948658149949637    0.958803376583926    0.628193918848570  0.0000
  Ge     Ge        0.541638311638879    0.019740498550161    0.627183259082368  0.0000
  Ge     Ge        0.552690987458203    0.022757286669943    0.128841328405314  0.0000
  Ge     Ge        0.943384431729410    0.955463294537073    0.122490833381875  0.0000
  Ge     Ge        0.145077135196644    0.317145683128599    0.255816263300205  0.0000
  Ge     Ge        0.355756276753582    0.630790371711545    0.259226089073821  0.0000
  Ge     Ge        0.823463049017171    0.242509207688179    0.703116291054590  0.0000
  Ge     Ge        0.668707975349965    0.734766736847038    0.696342431366842  0.0000
  Ge     Ge        0.848500538972238    0.646257358121200    0.695391436033148  0.0000
  Ge     Ge        0.641926572744207    0.331099307409942    0.701761993220731  0.0000
  Ge     Ge        0.172045087244526    0.713822011297837    0.264808456715985  0.0000
  Ge     Ge        0.642526265633011    0.338491745562730    0.016429295734165  0.0000
  Ge     Ge        0.327448166395963    0.251170870243836    0.944909167580760  0.0000
  Ge     Ge        0.166041573982690    0.726895048214855    0.952652880152841  0.0000
  Ge     Ge        0.350608761825411    0.653161246711290    0.948824758910360  0.0000
  Ge     Ge        0.145524461913372    0.325573787264600    0.938955901665458  0.0000
  Ge     Ge        0.673132717547032    0.738322539996550    0.012081134912508  0.0000
  Ge     Ge        0.825676644994844    0.254467804477376    0.015631579397158  0.0000
  Si     Si        0.447962939994914    0.959680950494034    0.882344223350398  0.0000
  Si     Si        0.047253496166832    0.018805584282481    0.881317213023256  0.0000
  Si     Si        0.324314066783471    0.240163166200192    0.253695919496085  0.0000
  Si     Si        0.850871678304411    0.649325963585089    0.004701911805863  0.0000
  O1     O1        0.077874019815707    0.203751683669914    0.333479294320066  0.0000
  O1     O1        0.419043718651594    0.743321555572319    0.350929054136653  0.0000
  O1     O1        0.872626938303069    0.101053688766556    0.607283942733185  0.0000
  O1     O1        0.615187899203349    0.873163029016935    0.601637870319801  0.0000
  O1     O1        0.916671650121083    0.754312752932148    0.613658726266321  0.0000
  O1     O1        0.575985946087855    0.221428092782975    0.613201993788821  0.0000
  O1     O1        0.130313617277210    0.865380222054252    0.361163007285692  0.0000
  O3     O3        0.365382495579114    0.086099250315159    0.330818386470981  0.0000
  O1     O1        0.022934328288384    0.998995761688902    0.530718234378578  0.0000
  O1     O1        0.464754709178243    0.986149900178962    0.530292577445726  0.0000
  O1     O1        0.976155083152933    0.937408728200452    0.279167213587948  0.0000
  O1     O1        0.522778411311998    0.001596458728167    0.285090576145932  0.0000
  O3     O3        0.976724301485729    0.981400905747256    0.789439975183417  0.0000
  O3     O3        0.517315255466171    0.992072074274013    0.789119384133456  0.0000
  O1     O1        0.576092534939597    0.231101478233908    0.102979954877929  0.0000
  O3     O3        0.914763031174586    0.753755621067275    0.079171449205524  0.0000
  O3     O3        0.381693013815650    0.105540025707837    0.859901728830621  0.0000
  O3     O3        0.116053816157376    0.879369621072762    0.862302086490508  0.0000
  O3     O3        0.411561811779295    0.775754617406777    0.858708590996183  0.0000
  O3     O3        0.079693159252120    0.206638038824024    0.855155486034885  0.0000
  O1     O1        0.632882802905363    0.895298826043562    0.104510287874820  0.0000
  O1     O1        0.872215162936752    0.110594841121559    0.116270744882593  0.0000
  O3     O3        0.477275100003680    0.963256725145650    0.030870681855523  0.0000
  O3     O3        0.020185530754683    0.013589770377816    0.030098527336002  0.0000
  O1     O1        0.153283023371131    0.513774652896318    0.324729794451018  0.0000
  O3     O3        0.344042491052606    0.423638951588255    0.315486364782992  0.0000
  O1     O1        0.836758475899124    0.444738937551167    0.639634599021598  0.0000
  O1     O1        0.655600472114406    0.529785641546999    0.640112136399551  0.0000
  O3     O3        0.234017609343739    0.210878013521856    0.256190860094568  0.0000
  O1     O1        0.268683270323452    0.737489948281471    0.261387099122715  0.0000
  O1     O1        0.726764937321010    0.211451069573186    0.703767660548112  0.0000
  O1     O1        0.764985722656721    0.768640984371348    0.686765583770328  0.0000
  O1     O1        0.119336869103685    0.348784851286571    0.097285963692456  0.0000
  O1     O1        0.387028989666778    0.628231624012849    0.103117318488131  0.0000
  O1     O1        0.856531871684841    0.224413008445873    0.860547469645005  0.0000
  O1     O1        0.640847601174808    0.751755158269699    0.855055459418256  0.0000
  O3     O3        0.874611672413721    0.620462305896219    0.856945132080491  0.0000
  O1     O1        0.611788207259577    0.353773529779997    0.858346593004616  0.0000
  O1     O1        0.135365570169600    0.734985523368317    0.109837173416746  0.0000
  O3     O3        0.354003404197901    0.244794758274953    0.106927480060247  0.0000
  O1     O1        0.652051694332267    0.541328871549255    0.074860267664108  0.0000
  O3     O3        0.840998166065242    0.463007446332302    0.067133557994186  0.0000
  O1     O1        0.342250760173876    0.453508014331663    0.884879353338081  0.0000
  O1     O1        0.152170931459388    0.529901460394069    0.882093001176422  0.0000
  O1     O1        0.728950536265835    0.227229307648977    0.021098285547578  0.0000
  O3     O3        0.771531819566398    0.759492913360953    0.010044870097785  0.0000
  O1     O1        0.232063211220411    0.214841952709657    0.930594852502461  0.0000
  O1     O1        0.262816964446021    0.758022820079954    0.954268469149826  0.0000
