data_c00530.vasp
_audit_creation_method             Generated by GULP
_audit_author_name                 Salvador R. G. Balestra
_symmetry_space_group_name_H-M     'P 1             '
_symmetry_Int_Tables_number        1

loop_
_symmetry_equiv_pos_site_id
_symmetry_equiv_pos_as_xyz
_cell_length_a                       17.5438
_cell_length_b                        7.8217
_cell_length_c                       10.5350
_cell_angle_alpha                   89.3684
_cell_angle_beta                    89.8924
_cell_angle_gamma                   88.5822

loop_
_atom_site_label
_atom_site_type_symbol
_atom_site_fract_x
_atom_site_fract_y
_atom_site_fract_z
_atom_site_charge
  Ge     Ge        0.052090000000021    0.000000000000000    0.372269999999958  0.0000
  Ge     Ge        0.439832014580765    0.004771998485894    0.373057430163696  0.0000
  Ge     Ge        0.947834702239791    0.989737926738630    0.627276119905023  0.0000
  Ge     Ge        0.546956070434897    0.027521335043637    0.624455427982920  0.0000
  Ge     Ge        0.551242818728268    0.027101239265664    0.128357971887804  0.0000
  Ge     Ge        0.937969455558032    0.983353124333116    0.129591330737690  0.0000
  Ge     Ge        0.445031333277564    0.003783044994564    0.880731795756044  0.0000
  Ge     Ge        0.325970649010135    0.715821306911957    0.261950842537890  0.0000
  Ge     Ge        0.823919547296424    0.268829592062594    0.706556803705868  0.0000
  Ge     Ge        0.670660006137106    0.746596618872054    0.702025707421263  0.0000
  Ge     Ge        0.852859726993539    0.671695959219615    0.707785425981649  0.0000
  Ge     Ge        0.641381217161073    0.344018551874387    0.705634441893098  0.0000
  Ge     Ge        0.638058091868106    0.347358644353792    0.013812896938836  0.0000
  Ge     Ge        0.852117271473805    0.665769324117585    0.015999224216620  0.0000
  Ge     Ge        0.341262551874153    0.321358774105090    0.955561073914311  0.0000
  Ge     Ge        0.137113780295296    0.694383107824425    0.963796576511661  0.0000
  Ge     Ge        0.320243466063216    0.734648663488656    0.954908314077610  0.0000
  Ge     Ge        0.158810449375026    0.279640388893287    0.960257402419045  0.0000
  Ge     Ge        0.670705043907078    0.747456720644311    0.011272693188016  0.0000
  Ge     Ge        0.819929557381463    0.265769137160305    0.015220826154139  0.0000
  Si     Si        0.040101773046475    0.012501491874543    0.884337153323277  0.0000
  Si     Si        0.160836914360471    0.287442845017870    0.258814110078839  0.0000
  Si     Si        0.144452151194385    0.684898922539976    0.263698154506419  0.0000
  Si     Si        0.339055452471827    0.315713208572113    0.257392733736972  0.0000
  O3     O3        0.119143323051123    0.157078310775884    0.350610816210819  0.0000
  O1     O1        0.377580801702558    0.840627269348505    0.358864335912321  0.0000
  O1     O1        0.868881685178889    0.122790085343938    0.610374595733544  0.0000
  O1     O1        0.625377200567002    0.893809500723863    0.604858615031604  0.0000
  O1     O1        0.918028310667626    0.783807110939661    0.619952093402115  0.0000
  O1     O1        0.577328458346563    0.233707925440546    0.616688062281577  0.0000
  O3     O3        0.092097562093175    0.796389376687408    0.356581668912548  0.0000
  O3     O3        0.390725827288439    0.195385635267634    0.345262426535023  0.0000
  O1     O1        0.021358746555005    0.022673821218249    0.525239228161156  0.0000
  O1     O1        0.471129785601157    0.000483809339065    0.526821751712833  0.0000
  O1     O1        0.973143215629512    0.019099445812571    0.278321802594786  0.0000
  O1     O1        0.520027863623345    0.992095634878231    0.281032230627748  0.0000
  O3     O3        0.978045995592039    0.047474450845749    0.778032196517604  0.0000
  O1     O1        0.515947027268092    0.969757387182354    0.774969174847735  0.0000
  O1     O1        0.572889710622564    0.238138240363321    0.102728284184645  0.0000
  O1     O1        0.915830999550129    0.773471026545661    0.107136730047218  0.0000
  O1     O1        0.408402163989485    0.210776958951303    0.870573398698907  0.0000
  O3     O3        0.070655469557328    0.815476662841017    0.878950083721457  0.0000
  O1     O1        0.369927912400581    0.868993018844224    0.860182827039853  0.0000
  O3     O3        0.110439209937550    0.139451253728883    0.867893181643261  0.0000
  O1     O1        0.633043493583731    0.906902123907066    0.103076508074844  0.0000
  O1     O1        0.856088916137061    0.105539070307886    0.110203891769086  0.0000
  O1     O1        0.480491651139338    0.961950559601041    0.029959786997326  0.0000
  O3     O3        0.004231783408904    0.054601088520406    0.020989318342677  0.0000
  O2     O2        0.145550543021588    0.483781857436611    0.302797240569864  0.0000
  O3     O3        0.341879158653175    0.505756010332173    0.309910443098507  0.0000
  O1     O1        0.872896459521746    0.457033420857182    0.703394596574647  0.0000
  O1     O1        0.621430229039540    0.558931817820195    0.698936781569759  0.0000
  O2     O2        0.251844703887435    0.250314822544940    0.256324033088295  0.0000
  O3     O3        0.228952442383130    0.757951404504646    0.268089705689097  0.0000
  O1     O1        0.732722322553629    0.307630638258469    0.651751694446904  0.0000
  O1     O1        0.762279303287659    0.709021963524135    0.649762426757037  0.0000
  O3     O3        0.130164124993101    0.264081673910351    0.117593335217468  0.0000
  O1     O1        0.353375163798167    0.747668986334956    0.108407701603755  0.0000
  O1     O1        0.814714814759105    0.198313177988097    0.860776555382821  0.0000
  O1     O1        0.677265078560193    0.815645755969598    0.855996591191198  0.0000
  O1     O1        0.858183412777317    0.740858604182140    0.862041926521683  0.0000
  O1     O1        0.632294910218734    0.274111671149171    0.860502029804121  0.0000
  O3     O3        0.110493133036432    0.707026243451358    0.122580360931736  0.0000
  O3     O3        0.369851052276738    0.309019371303586    0.113887759902694  0.0000
  O1     O1        0.617909372435436    0.563924284283490    0.016758490674048  0.0000
  O1     O1        0.872346421781525    0.449557318081758    0.020584366845066  0.0000
  O1     O1        0.333380134690184    0.527328974912063    0.904120287283523  0.0000
  O1     O1        0.140611759870146    0.488613500920094    0.912458308059192  0.0000
  O1     O1        0.729380025551718    0.315219792165333    0.067949672303975  0.0000
  O1     O1        0.760298047349471    0.698376031615484    0.068039133693233  0.0000
  O1     O1        0.253499120694487    0.229839012445332    0.944354746018510  0.0000
  O1     O1        0.224737638543893    0.783912526902005    0.949894388244554  0.0000
