data_c00686.vasp
_audit_creation_method             Generated by GULP
_audit_author_name                 Salvador R. G. Balestra
_symmetry_space_group_name_H-M     'P 1             '
_symmetry_Int_Tables_number        1

loop_
_symmetry_equiv_pos_site_id
_symmetry_equiv_pos_as_xyz
_cell_length_a                       17.7114
_cell_length_b                        7.7991
_cell_length_c                       10.5332
_cell_angle_alpha                   89.0789
_cell_angle_beta                    90.9640
_cell_angle_gamma                   89.5281

loop_
_atom_site_label
_atom_site_type_symbol
_atom_site_fract_x
_atom_site_fract_y
_atom_site_fract_z
_atom_site_charge
  Ge     Ge        0.052090000000021    0.000000000000000    0.372269999999958  0.0000
  Ge     Ge        0.448275077459012    0.023694261724621    0.398697198678920  0.0000
  Ge     Ge        0.948877993198973    0.002788284690155    0.624595788256398  0.0000
  Ge     Ge        0.554431497788841    0.033133528821870    0.153094806322086  0.0000
  Ge     Ge        0.950432914392368    0.000994289852067    0.113923174853938  0.0000
  Ge     Ge        0.447141031453575    0.032141976734548    0.900937775166607  0.0000
  Ge     Ge        0.058778536850864    0.016586778450937    0.871850569003029  0.0000
  Ge     Ge        0.173272081833903    0.274380028961204    0.285691167716670  0.0000
  Ge     Ge        0.330885100606719    0.738142427522005    0.290416472813751  0.0000
  Ge     Ge        0.824887739250760    0.284926331355561    0.734229122079981  0.0000
  Ge     Ge        0.666225092555583    0.758363295196036    0.728612957691616  0.0000
  Ge     Ge        0.847299504608288    0.692796252820754    0.728283121776711  0.0000
  Ge     Ge        0.644147084145721    0.348762081304393    0.732251290789501  0.0000
  Ge     Ge        0.150267544218502    0.687323841452380    0.292286379233636  0.0000
  Ge     Ge        0.644938535690726    0.351788895338882    0.041071013886822  0.0000
  Ge     Ge        0.853398751851085    0.684266425447331    0.037411305001752  0.0000
  Ge     Ge        0.346828916829299    0.348017205729226    0.978584923013419  0.0000
  Ge     Ge        0.328505672138375    0.754796730854829    0.984557077368479  0.0000
  Ge     Ge        0.673886769739494    0.759652723095833    0.036931897089808  0.0000
  Ge     Ge        0.824807691193209    0.279309804031480    0.042809380047476  0.0000
  Si     Si        0.547642332603631    0.040006927831799    0.652193471368786  0.0000
  Si     Si        0.349096655628435    0.331383551884409    0.281483717452466  0.0000
  Si     Si        0.150263120080492    0.701377067415602    0.993904146339133  0.0000
  Si     Si        0.169893038125313    0.298464732733858    0.985599196471967  0.0000
  O1     O1        0.127652185960377    0.137913016726068    0.384558823381783  0.0000
  O1     O1        0.383641238742377    0.862478290878901    0.389328124867856  0.0000
  O1     O1        0.876496143581425    0.145098120724965    0.647115338181093  0.0000
  O3     O3        0.614159599167444    0.900803333696846    0.633791688129993  0.0000
  O1     O1        0.913090645491061    0.800702058050169    0.641523692162407  0.0000
  O3     O3        0.581483194436029    0.229958692482876    0.641810925501324  0.0000
  O1     O1        0.087440889593250    0.794553313246672    0.384478619711186  0.0000
  O3     O3        0.409900014224755    0.223634881755860    0.363473080256960  0.0000
  O1     O1        0.979437407436764    0.032783709526691    0.471216200344067  0.0000
  O3     O3        0.478574094698072    0.020487108258561    0.555510979438912  0.0000
  O1     O1        0.020637204576634    0.041416547993338    0.218925086458198  0.0000
  O1     O1        0.524504769337897    0.994185008254091    0.304496902380384  0.0000
  O1     O1        0.028737620835922    0.029705846201628    0.716814458004019  0.0000
  O3     O3        0.517087211666264    0.004368813520410    0.793936485719902  0.0000
  O1     O1        0.579985807162575    0.243459975823074    0.128955132181395  0.0000
  O1     O1        0.918217061693974    0.794012688452142    0.125971083018648  0.0000
  O1     O1        0.410089483853172    0.236143294501020    0.892091193873404  0.0000
  O3     O3        0.096473648971680    0.812325538826137    0.901064699289341  0.0000
  O1     O1        0.370818357933722    0.897080595604980    0.885826770277502  0.0000
  O3     O3        0.122940204602635    0.181436593068093    0.890870464811282  0.0000
  O1     O1        0.632631466462565    0.906133015300735    0.131468462737166  0.0000
  O1     O1        0.873961024631272    0.135610329699700    0.134976991501214  0.0000
  O1     O1        0.483680915558447    0.980570476507313    0.048615837150452  0.0000
  O1     O1        0.981083652641971    0.042954999309721    0.961958647595635  0.0000
  O1     O1        0.155359897821376    0.478120799569705    0.338018727066725  0.0000
  O3     O3        0.339585160559418    0.521944236911204    0.333035322591911  0.0000
  O1     O1        0.835258237974641    0.489691499779511    0.673199286871755  0.0000
  O1     O1        0.652075484864095    0.553125343687613    0.673704539120213  0.0000
  O3     O3        0.269296488178477    0.233695639478909    0.288392336632552  0.0000
  O1     O1        0.236750003311096    0.785212302213866    0.302229014280228  0.0000
  O1     O1        0.729829410394088    0.242820490711623    0.731601733619230  0.0000
  O1     O1        0.761278687240121    0.799146055903430    0.722124447852974  0.0000
  O3     O3        0.143283986579083    0.260347589279216    0.128155613316153  0.0000
  O1     O1        0.361571976621781    0.769807607594804    0.138718687969878  0.0000
  O1     O1        0.856041779038209    0.275432256302972    0.888783086929720  0.0000
  O1     O1        0.638612105807612    0.768664642165821    0.883666643273455  0.0000
  O1     O1        0.881467139932610    0.680168991080896    0.881806377468617  0.0000
  O1     O1        0.613014196438720    0.357644461803090    0.885544053334720  0.0000
  O3     O3        0.117842644985559    0.707713889214328    0.135079677955876  0.0000
  O3     O3        0.376352375220850    0.338304398167303    0.136623074294442  0.0000
  O1     O1        0.657814179773127    0.554553071620574    0.095140167598341  0.0000
  O1     O1        0.840664551738661    0.483737781024959    0.098466047151246  0.0000
  O1     O1        0.346311327146834    0.554351812274398    0.926074302288332  0.0000
  O2     O2        0.157879002836340    0.502202433087406    0.953060134314871  0.0000
  O1     O1        0.729861840307162    0.241932313020643    0.044204808608853  0.0000
  O1     O1        0.768814056190838    0.795682389988621    0.033370311776208  0.0000
  O3     O3        0.258031957313053    0.256755244906533    0.971360445922049  0.0000
  O3     O3        0.232219032575149    0.787026185127328    0.993096372309310  0.0000
