data_c00683.vasp
_audit_creation_method             Generated by GULP
_audit_author_name                 Salvador R. G. Balestra
_symmetry_space_group_name_H-M     'P 1             '
_symmetry_Int_Tables_number        1

loop_
_symmetry_equiv_pos_site_id
_symmetry_equiv_pos_as_xyz
_cell_length_a                       17.5987
_cell_length_b                        7.8294
_cell_length_c                       10.2054
_cell_angle_alpha                   89.4334
_cell_angle_beta                    90.9748
_cell_angle_gamma                   88.8006

loop_
_atom_site_label
_atom_site_type_symbol
_atom_site_fract_x
_atom_site_fract_y
_atom_site_fract_z
_atom_site_charge
  Ge     Ge        0.052090000000021    0.000000000000000    0.372269999999958  0.0000
  Ge     Ge        0.444581991062825    0.950603069941495    0.378721179850533  0.0000
  Ge     Ge        0.943558750804614    0.955994508001044    0.618300298542677  0.0000
  Ge     Ge        0.550400848859439    0.997248298350370    0.126059150816795  0.0000
  Ge     Ge        0.954256651848335    0.935183404441964    0.111001735767533  0.0000
  Ge     Ge        0.442664213541460    0.946002110843602    0.871058310901793  0.0000
  Ge     Ge        0.058783340406608    0.000919863773242    0.860891819461161  0.0000
  Ge     Ge        0.151095333816979    0.312094223984897    0.298120438134050  0.0000
  Ge     Ge        0.351825023093753    0.634747325354711    0.295807563979197  0.0000
  Ge     Ge        0.821533168792305    0.239173497420802    0.727864111871282  0.0000
  Ge     Ge        0.666149050669229    0.715190477781518    0.736784041740901  0.0000
  Ge     Ge        0.847961355277989    0.640327046766226    0.733214323130290  0.0000
  Ge     Ge        0.639202165708520    0.312591124945736    0.738870751522771  0.0000
  Ge     Ge        0.171663111833390    0.716291741919635    0.293889212359319  0.0000
  Ge     Ge        0.648545207762840    0.309993550868938    0.056980803527452  0.0000
  Ge     Ge        0.852367953934971    0.624289930547738    0.054699841870552  0.0000
  Ge     Ge        0.326149357927366    0.238970536674559    0.987232553600609  0.0000
  Ge     Ge        0.173329948461482    0.705247535232424    0.978825729177734  0.0000
  Ge     Ge        0.673993191556232    0.711690501686455    0.056450458182000  0.0000
  Ge     Ge        0.827434025529006    0.222412470893893    0.045122145931090  0.0000
  Si     Si        0.546580999251021    0.002599896619423    0.629046109162545  0.0000
  Si     Si        0.326907710382570    0.235142418349672    0.297380705438740  0.0000
  Si     Si        0.352979323971560    0.635293739902522    0.987978189183264  0.0000
  Si     Si        0.148328471256950    0.310251528464257    0.985314823013533  0.0000
  O1     O1        0.088398446411636    0.200677299103340    0.389522922307126  0.0000
  O1     O1        0.411095655671259    0.747338459365214    0.396204762239985  0.0000
  O1     O1        0.867533225594959    0.092873419060719    0.632366666284767  0.0000
  O3     O3        0.617734291261456    0.874356442834863    0.650455932028356  0.0000
  O1     O1        0.916317966714423    0.752268396076882    0.654107271972155  0.0000
  O3     O3        0.570113626511084    0.194933875184746    0.660481008614827  0.0000
  O1     O1        0.124425741140128    0.851103761901590    0.396050797610722  0.0000
  O3     O3        0.372696661320331    0.104381657716198    0.392184240690771  0.0000
  O1     O1        0.972247987371416    0.963123318282966    0.456928346713512  0.0000
  O3     O3        0.521355723913430    0.993727390610574    0.476812953170035  0.0000
  O1     O1        0.029740349881639    0.981530964966095    0.207035772754159  0.0000
  O1     O1        0.474476935560669    0.957730635112752    0.219077013217902  0.0000
  O1     O1        0.024819793253107    0.012931025513269    0.702215051499232  0.0000
  O3     O3        0.472956553225128    0.947713605926400    0.710097990013394  0.0000
  O1     O1        0.586387226723699    0.197526442671644    0.149183559729993  0.0000
  O1     O1        0.920586489991668    0.732706039535330    0.138421944326014  0.0000
  O1     O1        0.370080397451774    0.093899286884127    0.890444091488443  0.0000
  O1     O1        0.131914742092852    0.852073183312980    0.874121584779594  0.0000
  O3     O3        0.410441486844175    0.741817504517542    0.901278983426588  0.0000
  O3     O3        0.087052636689907    0.203448018354693    0.905427547552032  0.0000
  O1     O1        0.623277924933313    0.849607193782216    0.150575103620712  0.0000
  O1     O1        0.879770520697990    0.077528286687952    0.134779884587412  0.0000
  O1     O1        0.520315886815120    0.991862446293442    0.963883707895532  0.0000
  O1     O1        0.982051133132213    0.941361498025297    0.949731212182490  0.0000
  O1     O1        0.158139308959486    0.512803363622110    0.355491521555840  0.0000
  O3     O3        0.339685762288037    0.427751770054888    0.348118397417147  0.0000
  O1     O1        0.836139711585152    0.441439745149824    0.667117488793966  0.0000
  O1     O1        0.647060298036368    0.515937519230622    0.675049107462691  0.0000
  O3     O3        0.237591306235327    0.200073719739482    0.300089919075908  0.0000
  O1     O1        0.267366972544215    0.748035383518787    0.294111066158323  0.0000
  O1     O1        0.725404076929572    0.206647098598826    0.729061887400999  0.0000
  O1     O1        0.761955233242754    0.750091563539241    0.726776683584217  0.0000
  O3     O3        0.122475003152978    0.328548868973768    0.134843546120708  0.0000
  O3     O3        0.384943716514677    0.627243173385815    0.136811609384283  0.0000
  O1     O1        0.857190960280759    0.215418884696302    0.885054678381807  0.0000
  O1     O1        0.639706501488408    0.723814095335126    0.897415365703530  0.0000
  O1     O1        0.875931182621217    0.605261106766880    0.892447725731326  0.0000
  O1     O1        0.614451519256819    0.337210320716132    0.898761304490018  0.0000
  O1     O1        0.138805607069664    0.734160572924184    0.133329544105798  0.0000
  O3     O3        0.356635566438277    0.215965723412357    0.148941218158431  0.0000
  O1     O1        0.664110152080997    0.507085101926450    0.119038796992844  0.0000
  O1     O1        0.840632900675403    0.422381418762537    0.112595015036792  0.0000
  O3     O3        0.345872826373756    0.444242329953031    0.934055603510450  0.0000
  O3     O3        0.155131753748263    0.499632808207049    0.925162665323958  0.0000
  O1     O1        0.731628350603250    0.188995092085845    0.046995481488784  0.0000
  O1     O1        0.769523421864019    0.747261997158251    0.057813959182023  0.0000
  O3     O3        0.229295890293070    0.210128718531338    0.979676257686652  0.0000
  O3     O3        0.270650681046351    0.729644464547377    0.985837198561636  0.0000
