data_c00608.vasp
_audit_creation_method             Generated by GULP
_audit_author_name                 Salvador R. G. Balestra
_symmetry_space_group_name_H-M     'P 1             '
_symmetry_Int_Tables_number        1

loop_
_symmetry_equiv_pos_site_id
_symmetry_equiv_pos_as_xyz
_cell_length_a                       17.4948
_cell_length_b                        7.8416
_cell_length_c                       10.2617
_cell_angle_alpha                   91.1087
_cell_angle_beta                    91.9084
_cell_angle_gamma                   92.5206

loop_
_atom_site_label
_atom_site_type_symbol
_atom_site_fract_x
_atom_site_fract_y
_atom_site_fract_z
_atom_site_charge
  Ge     Ge        0.052090000000021    0.000000000000000    0.372269999999958  0.0000
  Ge     Ge        0.454695647883413    0.034332167249639    0.376697733936814  0.0000
  Ge     Ge        0.940895572856544    0.016800200037455    0.620787053648503  0.0000
  Ge     Ge        0.533287222601269    0.937311195986350    0.645138659777865  0.0000
  Ge     Ge        0.572309129915529    0.964576383575226    0.157720630982435  0.0000
  Ge     Ge        0.047579964025920    0.961169078792611    0.880892485264050  0.0000
  Ge     Ge        0.174020935952379    0.286986851756473    0.276476632134181  0.0000
  Ge     Ge        0.329763414542969    0.737260765854199    0.265318321848260  0.0000
  Ge     Ge        0.841720124143529    0.323477767316764    0.695824379779537  0.0000
  Ge     Ge        0.640029041173345    0.640058726780565    0.720527345954749  0.0000
  Ge     Ge        0.820858965002818    0.727963264353714    0.705843806366604  0.0000
  Ge     Ge        0.662204178075626    0.233426848276073    0.715100220418839  0.0000
  Ge     Ge        0.152859510808423    0.698479169976477    0.260210995987330  0.0000
  Ge     Ge        0.362136674828498    0.350981605730694    0.284471435772089  0.0000
  Ge     Ge        0.679449242756870    0.244091406414907    0.027916380558443  0.0000
  Ge     Ge        0.835729478838959    0.724929402025916    0.020917265599715  0.0000
  Ge     Ge        0.359990070609133    0.320645720473056    0.973386581381728  0.0000
  Ge     Ge        0.154895617436643    0.662774446622730    0.934062281972963  0.0000
  Ge     Ge        0.170489272030213    0.257637183442077    0.963667841015747  0.0000
  Ge     Ge        0.650138604745733    0.640036786784673    0.037841000591525  0.0000
  Si     Si        0.946973725951467    0.030020949524019    0.123933158861898  0.0000
  Si     Si        0.452257267133208    0.003882778323218    0.918947027239768  0.0000
  Si     Si        0.329153451769344    0.695192157932717    0.955831355419083  0.0000
  Si     Si        0.860373644198360    0.334806235561693    0.001720065056132  0.0000
  O1     O1        0.127275999441177    0.146861455192504    0.376201061362018  0.0000
  O1     O1        0.391852199977955    0.908184650905665    0.277836160805326  0.0000
  O1     O1        0.903447791668732    0.214265063284407    0.603040027608695  0.0000
  O1     O1        0.573348222300310    0.743068922519806    0.629461549939139  0.0000
  O1     O1        0.867605390176978    0.862654682127986    0.603338258431013  0.0000
  O1     O1        0.601963442746106    0.097384137952348    0.623924763981073  0.0000
  O1     O1        0.080886903736227    0.800958351908571    0.332239953227290  0.0000
  O1     O1        0.423452488144566    0.236432608932028    0.381408513928769  0.0000
  O1     O1        0.016772247687280    0.986990198401991    0.526324576008959  0.0000
  O1     O1        0.460288922467060    0.958816732941099    0.533004388956913  0.0000
  O3     O3        0.976216754179368    0.059522107615036    0.272358054802512  0.0000
  O1     O1        0.543143578993555    0.007444212475823    0.311576483646994  0.0000
  O1     O1        0.972622877302316    0.003113892976520    0.781436671586788  0.0000
  O3     O3        0.502142141283627    0.940470717543241    0.803362035809843  0.0000
  O1     O1        0.654752525403927    0.083402114634378    0.128990828013058  0.0000
  O3     O3        0.879430022133429    0.883743345638555    0.118838600314364  0.0000
  O3     O3        0.413240049271923    0.179783020799560    0.884464148038259  0.0000
  O1     O1        0.086040444583336    0.766510860148926    0.849200528563279  0.0000
  O2     O2        0.386462537214604    0.858127488673224    0.947513570067157  0.0000
  O1     O1        0.125272018345413    0.102185682198065    0.868931919414331  0.0000
  O1     O1        0.590382523745250    0.753649742528793    0.133252180097868  0.0000
  O2     O2        0.919383296635920    0.212990586128933    0.073918618352728  0.0000
  O3     O3        0.502481431972818    0.035080737680951    0.050695652939011  0.0000
  O3     O3        0.016150434768208    0.967667982064142    0.039911306315628  0.0000
  O1     O1        0.154696401950698    0.493536995689744    0.314871300761718  0.0000
  O1     O1        0.363532479082020    0.559256673020588    0.340754786937460  0.0000
  O1     O1        0.827076764221789    0.523299350580313    0.641792964624566  0.0000
  O1     O1        0.650794168413462    0.438521184162914    0.661667723331808  0.0000
  O1     O1        0.270782941479876    0.261841226107137    0.289818477937378  0.0000
  O1     O1        0.241017647249057    0.792452559554970    0.310023017604574  0.0000
  O1     O1        0.757785171544860    0.199438733611388    0.698965751123291  0.0000
  O1     O1        0.724968534599337    0.761246442045437    0.717469464873050  0.0000
  O1     O1        0.139821002846179    0.241707093510752    0.120576686863402  0.0000
  O3     O3        0.312718588218127    0.649346967694607    0.107211213914191  0.0000
  O3     O3        0.882146730325862    0.355653820352990    0.852580078091995  0.0000
  O1     O1        0.614149182818839    0.626308302759065    0.880550118470010  0.0000
  O1     O1        0.860696669267296    0.749313738068705    0.862249067152888  0.0000
  O1     O1        0.636897428459906    0.213485437209797    0.875092656099311  0.0000
  O1     O1        0.140270798552966    0.711768025807940    0.095027002561706  0.0000
  O1     O1        0.396768317333834    0.330348978341878    0.130021506203264  0.0000
  O1     O1        0.656043967221069    0.436947863020658    0.094794181977414  0.0000
  O3     O3        0.860893310838963    0.521350675337650    0.069760488520248  0.0000
  O3     O3        0.363445821176425    0.520892795952723    0.900969497928875  0.0000
  O1     O1        0.146559349504374    0.450060481404194    0.900235182445754  0.0000
  O3     O3        0.776024114791589    0.246134509964425    0.000798281764536  0.0000
  O1     O1        0.739435799271106    0.740362723925225    0.036340548478136  0.0000
  O1     O1        0.267576483311526    0.240117482764990    0.970563779171881  0.0000
  O3     O3        0.247476242017743    0.731322039363423    0.890641870877696  0.0000
