data_c00654.vasp
_audit_creation_method             Generated by GULP
_audit_author_name                 Salvador R. G. Balestra
_symmetry_space_group_name_H-M     'P 1             '
_symmetry_Int_Tables_number        1

loop_
_symmetry_equiv_pos_site_id
_symmetry_equiv_pos_as_xyz
_cell_length_a                       17.5843
_cell_length_b                        7.8034
_cell_length_c                       10.3013
_cell_angle_alpha                   89.5685
_cell_angle_beta                    90.4951
_cell_angle_gamma                   90.9671

loop_
_atom_site_label
_atom_site_type_symbol
_atom_site_fract_x
_atom_site_fract_y
_atom_site_fract_z
_atom_site_charge
  Ge     Ge        0.052090000000021    0.000000000000000    0.372269999999958  0.0000
  Ge     Ge        0.451602180900601    0.045509336347559    0.373983588935827  0.0000
  Ge     Ge        0.949580684908222    0.045680927207838    0.626171162043342  0.0000
  Ge     Ge        0.559396847680868    0.994078860367147    0.128121273027430  0.0000
  Ge     Ge        0.941149822933968    0.051742342035994    0.130015684839135  0.0000
  Ge     Ge        0.451763730074337    0.062258934271309    0.876198612211244  0.0000
  Ge     Ge        0.051512761679327    0.997173667772243    0.886340362562774  0.0000
  Ge     Ge        0.175944939281458    0.282522766621770    0.261533540878620  0.0000
  Ge     Ge        0.327050103249100    0.766774416624877    0.265518005333540  0.0000
  Ge     Ge        0.848373373559375    0.357650747531888    0.698474094872825  0.0000
  Ge     Ge        0.645462724977064    0.684719684723428    0.699153566035117  0.0000
  Ge     Ge        0.825166148735982    0.765119461812770    0.697957742330733  0.0000
  Ge     Ge        0.668008397897801    0.277563871322563    0.702989941357653  0.0000
  Ge     Ge        0.146901071090304    0.686895558850430    0.257779767655521  0.0000
  Ge     Ge        0.356974475508963    0.362629922121019    0.257380947814907  0.0000
  Ge     Ge        0.673637035560635    0.288270840069971    0.016264945524158  0.0000
  Ge     Ge        0.825414413309728    0.758785793518854    0.012089033122314  0.0000
  Ge     Ge        0.352447528444525    0.374352853974992    0.939300070099543  0.0000
  Ge     Ge        0.327978503239531    0.775461154666772    0.950711446391863  0.0000
  Ge     Ge        0.172734929520514    0.292742310316719    0.947238150025567  0.0000
  Si     Si        0.550278580474009    0.996189914830266    0.627315141692011  0.0000
  Si     Si        0.152190091758676    0.689129891707354    0.948907804517497  0.0000
  Si     Si        0.647856559955620    0.682924809808714    0.008433214345721  0.0000
  Si     Si        0.851396848949539    0.362555519450176    0.007071479896626  0.0000
  O1     O1        0.129259495493051    0.133466885929797    0.354756706814279  0.0000
  O1     O1        0.373623018731228    0.913601887430684    0.360468120645999  0.0000
  O1     O1        0.914187354575395    0.249319982702563    0.611694372939313  0.0000
  O3     O3        0.579814277834416    0.803443234179150    0.612040794942214  0.0000
  O1     O1        0.875890519992494    0.901132408885641    0.600302497184876  0.0000
  O3     O3        0.618586013614369    0.133604866352105    0.606039241636293  0.0000
  O1     O1        0.076022590320229    0.794067995888026    0.333109119072780  0.0000
  O1     O1        0.426765956212167    0.251864826573158    0.337290039676758  0.0000
  O1     O1        0.026570615499220    0.008554769963208    0.533551236356292  0.0000
  O3     O3        0.479474018726740    0.035945333249376    0.536416925028013  0.0000
  O1     O1        0.971739802929589    0.060456941062812    0.288569310854164  0.0000
  O1     O1        0.527613264798393    0.981157247161249    0.284747327380924  0.0000
  O1     O1        0.975238833250556    0.018872856289192    0.787311453705824  0.0000
  O3     O3        0.525745359044378    0.014415122213476    0.777694069968180  0.0000
  O1     O1        0.632983667177725    0.141666747299808    0.118470350397659  0.0000
  O1     O1        0.868759209616086    0.902542176792898    0.113319990810443  0.0000
  O1     O1        0.417442028727327    0.264630806453021    0.851184643039294  0.0000
  O3     O3        0.092860809997968    0.797799823574046    0.865754088124632  0.0000
  O1     O1        0.375446554429304    0.922707442979764    0.858735034537722  0.0000
  O1     O1        0.117687456211655    0.157643904027500    0.855545793887045  0.0000
  O3     O3        0.586399137647039    0.789759355292051    0.085065401652298  0.0000
  O3     O3        0.912715714157303    0.256108403183155    0.087444774302613  0.0000
  O1     O1        0.483926693271687    0.055927916184724    0.034482804443724  0.0000
  O1     O1        0.020066903213349    0.998995597653558    0.044028769982559  0.0000
  O1     O1        0.158581096386334    0.484744770312515    0.319872188447445  0.0000
  O1     O1        0.343810769746492    0.562114319408926    0.321510439719810  0.0000
  O1     O1        0.836295557834099    0.559674725824715    0.640435147630454  0.0000
  O1     O1        0.652881861919453    0.481753886141680    0.641623541955753  0.0000
  O1     O1        0.272064588544362    0.248795750971552    0.264202411267085  0.0000
  O1     O1        0.230954051117822    0.801436693535405    0.270723080129216  0.0000
  O1     O1        0.763805739713909    0.242367959265827    0.696442270562010  0.0000
  O1     O1        0.729254650003387    0.800276509383025    0.693293181356496  0.0000
  O1     O1        0.142963858292867    0.264808745934017    0.104462506896637  0.0000
  O1     O1        0.359695465742979    0.789134993174882    0.108891526236639  0.0000
  O3     O3        0.878035081279205    0.380252110820710    0.858847001219125  0.0000
  O3     O3        0.620441840278192    0.657807986047906    0.860452191467928  0.0000
  O1     O1        0.856643408159123    0.786455270749038    0.856558907652752  0.0000
  O1     O1        0.638462318491481    0.260211774653594    0.861806535660715  0.0000
  O3     O3        0.123789186388130    0.658591722869312    0.095637289930832  0.0000
  O1     O1        0.381772881812060    0.392087133050272    0.098615332166344  0.0000
  O3     O3        0.656783958122596    0.494644653746450    0.070351551251019  0.0000
  O3     O3        0.843214762882885    0.551235339556154    0.065620630195553  0.0000
  O1     O1        0.343179539277569    0.578039629637177    0.882504641013314  0.0000
  O3     O3        0.164279606545906    0.502953790333336    0.889518823564388  0.0000
  O3     O3        0.770850664247693    0.260487157548977    0.010979810400738  0.0000
  O3     O3        0.727930528965401    0.786730325615619    0.011965406720385  0.0000
  O1     O1        0.268228985696983    0.256459115997460    0.938924767248475  0.0000
  O3     O3        0.230417514026200    0.801213159785221    0.955273738535311  0.0000
