data_c00680.vasp
_audit_creation_method             Generated by GULP
_audit_author_name                 Salvador R. G. Balestra
_symmetry_space_group_name_H-M     'P 1             '
_symmetry_Int_Tables_number        1

loop_
_symmetry_equiv_pos_site_id
_symmetry_equiv_pos_as_xyz
_cell_length_a                       17.5257
_cell_length_b                        7.8333
_cell_length_c                       10.2458
_cell_angle_alpha                   89.9970
_cell_angle_beta                    90.8266
_cell_angle_gamma                   87.9663

loop_
_atom_site_label
_atom_site_type_symbol
_atom_site_fract_x
_atom_site_fract_y
_atom_site_fract_z
_atom_site_charge
  Ge     Ge        0.052090000000021    0.000000000000000    0.372269999999958  0.0000
  Ge     Ge        0.445825284638614    0.945153213899937    0.360634074630335  0.0000
  Ge     Ge        0.943936328021553    0.958052508274053    0.618672002077848  0.0000
  Ge     Ge        0.551915075822647    0.008978108560748    0.114978121240088  0.0000
  Ge     Ge        0.939337870216812    0.951692455907728    0.128138118931428  0.0000
  Ge     Ge        0.444285846320319    0.943106023418987    0.862051051485369  0.0000
  Ge     Ge        0.045319536953930    0.013588140464403    0.879434242688153  0.0000
  Ge     Ge        0.147268701804722    0.310196023805061    0.251684568850155  0.0000
  Ge     Ge        0.355178327100003    0.626396250175806    0.248717851125685  0.0000
  Ge     Ge        0.819421938796642    0.243198246242401    0.689740221527473  0.0000
  Ge     Ge        0.662571563989474    0.723243272959196    0.687555922092514  0.0000
  Ge     Ge        0.844526929583838    0.646033744163429    0.684967210624927  0.0000
  Ge     Ge        0.636069795343892    0.320436853950073    0.687445290527422  0.0000
  Ge     Ge        0.171769283750801    0.710038296572708    0.258108348061469  0.0000
  Ge     Ge        0.636770756702640    0.330381055463435    0.000695129171965  0.0000
  Ge     Ge        0.846696958720888    0.641016595484039    0.002600793204890  0.0000
  Ge     Ge        0.320321089959161    0.232096016728643    0.935879020511816  0.0000
  Ge     Ge        0.166674049612783    0.713680426991171    0.944031486313577  0.0000
  Ge     Ge        0.349214094886956    0.631076853210650    0.933804108496864  0.0000
  Ge     Ge        0.819642563027582    0.241532841098929    0.005904855415298  0.0000
  Si     Si        0.543118916424091    0.010466866919196    0.613341351334389  0.0000
  Si     Si        0.325559318680644    0.232316627313712    0.247104807429748  0.0000
  Si     Si        0.144121258934331    0.319403233234250    0.939538733187576  0.0000
  Si     Si        0.667290429423462    0.722733102886627    0.997893231668221  0.0000
  O1     O1        0.080292907497640    0.200947941401757    0.332060619971259  0.0000
  O1     O1        0.418763504680437    0.738499038327208    0.341027539114670  0.0000
  O1     O1        0.868963429218293    0.102991883512996    0.592520476330297  0.0000
  O3     O3        0.611088334037976    0.869293791082919    0.592733127696707  0.0000
  O1     O1        0.909423374602121    0.757156435828097    0.598024617992483  0.0000
  O3     O3        0.574421959183297    0.198726330706386    0.594292682877985  0.0000
  O1     O1        0.127760843259935    0.858938215649963    0.355968617516411  0.0000
  O3     O3        0.369732826035787    0.084665196864863    0.327683165186896  0.0000
  O1     O1        0.023672168412219    0.996910977638021    0.532754619755559  0.0000
  O3     O3        0.470504155080822    0.974933359266552    0.523880512436943  0.0000
  O1     O1        0.970652497094036    0.949501107445725    0.287769648996715  0.0000
  O1     O1        0.525594749400251    0.987369401130715    0.274408046046667  0.0000
  O1     O1        0.968468301454302    0.983476506953194    0.781981369353826  0.0000
  O3     O3        0.518640770003758    0.991286241965876    0.764567533463894  0.0000
  O1     O1        0.575346424514369    0.218436239086020    0.092924388158463  0.0000
  O1     O1        0.911595778032848    0.748714047835482    0.092159862401352  0.0000
  O1     O1        0.366829985855960    0.084348114429381    0.843575810378753  0.0000
  O1     O1        0.114428762019764    0.856128454541073    0.850889510574489  0.0000
  O1     O1        0.410645700869310    0.742247132362011    0.839686285957182  0.0000
  O3     O3        0.082371331789917    0.215591593971849    0.858812692218518  0.0000
  O3     O3        0.629004091177757    0.871665430622814    0.083145093243224  0.0000
  O1     O1        0.862308377595112    0.089777362946111    0.104543039454192  0.0000
  O1     O1        0.474392114408803    0.958872158208685    0.021918018893089  0.0000
  O1     O1        0.016306697452101    0.008139212881249    0.039096476797576  0.0000
  O1     O1        0.154084212088358    0.509504456549253    0.316964092194547  0.0000
  O3     O3        0.344009782006947    0.419157376254928    0.303913613776279  0.0000
  O1     O1        0.832021845159371    0.445230625503803    0.627259748958847  0.0000
  O1     O1        0.645510893309186    0.521732060048897    0.627157868009015  0.0000
  O3     O3        0.235492918514322    0.202372823196611    0.256487162811107  0.0000
  O1     O1        0.268194569870279    0.733883886135007    0.254965651225514  0.0000
  O1     O1        0.723133676247004    0.211603824664290    0.691320629599157  0.0000
  O1     O1        0.757796886946466    0.759237116202986    0.679788551333960  0.0000
  O3     O3        0.120209238431243    0.339810933106652    0.090196454663084  0.0000
  O1     O1        0.385520049254759    0.620006101005141    0.091032519686207  0.0000
  O1     O1        0.852649352112834    0.228487535169920    0.848878875784569  0.0000
  O3     O3        0.634664472573010    0.729591302771888    0.849737190251565  0.0000
  O1     O1        0.876352582438980    0.629638890221788    0.844138443188061  0.0000
  O1     O1        0.602186396728716    0.338261809161675    0.843359319445274  0.0000
  O1     O1        0.135644640761932    0.735309333320641    0.101944890684707  0.0000
  O3     O3        0.351930993357688    0.225449298332635    0.097302278027666  0.0000
  O3     O3        0.648890038498032    0.536938451434289    0.056590684333250  0.0000
  O1     O1        0.839134725484275    0.441263395384703    0.066000063951417  0.0000
  O1     O1        0.338552219525502    0.430890932180720    0.874076553471517  0.0000
  O3     O3        0.154211457641666    0.507414550654430    0.883489771749764  0.0000
  O1     O1        0.722991436260999    0.220140424986802    0.002547480932511  0.0000
  O3     O3        0.757675941703451    0.746517015835025    0.997246837237333  0.0000
  O3     O3        0.223082676925882    0.206291326003636    0.934663940109612  0.0000
  O1     O1        0.262732832170809    0.743762883970345    0.940397484002867  0.0000
