data_c00616.vasp
_audit_creation_method             Generated by GULP
_audit_author_name                 Salvador R. G. Balestra
_symmetry_space_group_name_H-M     'P 1             '
_symmetry_Int_Tables_number        1

loop_
_symmetry_equiv_pos_site_id
_symmetry_equiv_pos_as_xyz
_cell_length_a                       17.7074
_cell_length_b                        7.8033
_cell_length_c                       10.1237
_cell_angle_alpha                   88.0911
_cell_angle_beta                    90.5987
_cell_angle_gamma                   90.7937

loop_
_atom_site_label
_atom_site_type_symbol
_atom_site_fract_x
_atom_site_fract_y
_atom_site_fract_z
_atom_site_charge
  Ge     Ge        0.052090000000021    0.000000000000000    0.372269999999958  0.0000
  Ge     Ge        0.444172560780678    0.057790148732138    0.368036336763952  0.0000
  Ge     Ge        0.944654632476511    0.086836861993734    0.615225037984916  0.0000
  Ge     Ge        0.542905132790679    0.047635161089062    0.631502166071014  0.0000
  Ge     Ge        0.563867946616702    0.020694275484997    0.141680487572848  0.0000
  Ge     Ge        0.048126051033952    0.042251455919429    0.876042762405773  0.0000
  Ge     Ge        0.176290567690941    0.286604801020452    0.259167945975014  0.0000
  Ge     Ge        0.331287834186436    0.757431470878478    0.276053283832792  0.0000
  Ge     Ge        0.848244108850135    0.398693508102471    0.691892454871614  0.0000
  Ge     Ge        0.643603804151297    0.729028094807673    0.702876335426558  0.0000
  Ge     Ge        0.821586183298594    0.803109270492528    0.688080516576080  0.0000
  Ge     Ge        0.669132128755543    0.320187994275293    0.706827961278163  0.0000
  Ge     Ge        0.146834565190095    0.690519536808176    0.269625532010322  0.0000
  Ge     Ge        0.677052188633258    0.319965599985379    0.025626108518921  0.0000
  Ge     Ge        0.831976639178514    0.794450251449603    0.009947885824926  0.0000
  Ge     Ge        0.347793925802693    0.404419313632400    0.935832201285537  0.0000
  Ge     Ge        0.155208483920566    0.734315996659516    0.950542796272279  0.0000
  Ge     Ge        0.336307492653086    0.804683263771911    0.960039090704105  0.0000
  Ge     Ge        0.175645730536673    0.325575694452654    0.929424397367540  0.0000
  Ge     Ge        0.857781158521739    0.391203109138927    0.013256026250585  0.0000
  Si     Si        0.947489579002628    0.074899154827530    0.126627108519795  0.0000
  Si     Si        0.453903135309019    0.097557620350424    0.898216624243519  0.0000
  Si     Si        0.346685363211489    0.369602761316333    0.257802409089884  0.0000
  Si     Si        0.655621345232951    0.720234832636689    0.017882405687115  0.0000
  O1     O1        0.131229007388446    0.119038883889330    0.336489203380868  0.0000
  O1     O1        0.376946732516116    0.900184681691082    0.376052974440123  0.0000
  O1     O1        0.909532627398087    0.289940163533978    0.595483841473684  0.0000
  O1     O1        0.573944697226446    0.840339216825576    0.621248147627715  0.0000
  O1     O1        0.872416675726124    0.942180405933910    0.588907893072455  0.0000
  O1     O1        0.618713581589289    0.185564766373200    0.609243596417766  0.0000
  O1     O1        0.080126765777985    0.792245964738316    0.360010553655445  0.0000
  O3     O3        0.417071603348202    0.249683672012877    0.289149919716084  0.0000
  O1     O1        0.023901386805811    0.043359059003146    0.529439684271497  0.0000
  O1     O1        0.468881458771569    0.094836299212947    0.530594125403818  0.0000
  O3     O3        0.972551696084719    0.052842015097663    0.278904040680243  0.0000
  O1     O1        0.528087653178295    0.002068803479776    0.298244269322127  0.0000
  O1     O1        0.969960500766936    0.065915194700923    0.781002937013116  0.0000
  O3     O3        0.519403934883195    0.072531082406946    0.796162753023693  0.0000
  O1     O1        0.631710248880821    0.178903832418420    0.131890261638011  0.0000
  O3     O3        0.875814239229933    0.952439473880236    0.098145262843374  0.0000
  O3     O3        0.424958654769916    0.293816898375231    0.887385996081337  0.0000
  O1     O1        0.094650854005724    0.853772548719371    0.854472934661549  0.0000
  O3     O3        0.384057921313948    0.967475830095635    0.874270281371229  0.0000
  O1     O1        0.112016885841144    0.206388393943398    0.843611375518857  0.0000
  O3     O3        0.598171107866587    0.821758200232283    0.105807572504272  0.0000
  O3     O3        0.925650756777918    0.272106599281512    0.097122798892227  0.0000
  O3     O3        0.485243796584964    0.068311869933297    0.046128016270883  0.0000
  O3     O3        0.019594868225134    0.029253624366902    0.040578821552121  0.0000
  O1     O1        0.149847559784656    0.479094379967015    0.320543203431481  0.0000
  O3     O3        0.351687954992109    0.548540609871998    0.331953565424454  0.0000
  O1     O1        0.832554627053894    0.599932605896318    0.628771233271030  0.0000
  O1     O1        0.654016741317569    0.527709794564366    0.647508888617037  0.0000
  O3     O3        0.271797094529103    0.260181812583211    0.294768995416429  0.0000
  O1     O1        0.235634134776871    0.782695674155607    0.282002021169167  0.0000
  O1     O1        0.764387329810411    0.283507726111110    0.702170141895562  0.0000
  O1     O1        0.727041071607228    0.845114374214518    0.687316591849018  0.0000
  O1     O1        0.156928650228085    0.281414599466046    0.093506746881054  0.0000
  O1     O1        0.366826251421482    0.806017965914237    0.121924219111776  0.0000
  O1     O1        0.883164358151446    0.414234757306136    0.850630373144247  0.0000
  O3     O3        0.623017670922875    0.707944866139313    0.870040187811775  0.0000
  O1     O1        0.857168916976395    0.808395183200415    0.847402129010450  0.0000
  O1     O1        0.641507316208298    0.296638531072477    0.869609682571424  0.0000
  O1     O1        0.119696182356178    0.702219776397674    0.106643409381453  0.0000
  O3     O3        0.336201361629219    0.433096026709856    0.104814063596459  0.0000
  O3     O3        0.667013802402405    0.529168525850199    0.077114852967993  0.0000
  O1     O1        0.854041185286732    0.594150539324034    0.074074125655241  0.0000
  O1     O1        0.353098521405200    0.614722402383669    0.882386373303452  0.0000
  O1     O1        0.167168405655847    0.539144293506540    0.884463111347314  0.0000
  O1     O1        0.772426128813780    0.285867863393126    0.025891962041043  0.0000
  O3     O3        0.735286402186724    0.823096041683732    0.015166355067310  0.0000
  O1     O1        0.268509766300225    0.290003848442036    0.892331647290174  0.0000
  O1     O1        0.240986887141643    0.841705733702896    0.960176600081564  0.0000
