data_c00644.vasp
_audit_creation_method             Generated by GULP
_audit_author_name                 Salvador R. G. Balestra
_symmetry_space_group_name_H-M     'P 1             '
_symmetry_Int_Tables_number        1

loop_
_symmetry_equiv_pos_site_id
_symmetry_equiv_pos_as_xyz
_cell_length_a                       17.5166
_cell_length_b                        7.8126
_cell_length_c                       10.3336
_cell_angle_alpha                   90.3170
_cell_angle_beta                    90.6837
_cell_angle_gamma                   88.3785

loop_
_atom_site_label
_atom_site_type_symbol
_atom_site_fract_x
_atom_site_fract_y
_atom_site_fract_z
_atom_site_charge
  Ge     Ge        0.052090000000021    0.000000000000000    0.372269999999958  0.0000
  Ge     Ge        0.449471073677595    0.939327242653474    0.414608701355231  0.0000
  Ge     Ge        0.948557283500779    0.932586901109730    0.624694734349394  0.0000
  Ge     Ge        0.545885851623213    0.985244337741307    0.678064910214034  0.0000
  Ge     Ge        0.561513667729671    0.995553649482442    0.177271558268448  0.0000
  Ge     Ge        0.147470998337744    0.312549932231821    0.292424341457504  0.0000
  Ge     Ge        0.354503370366522    0.628099949473292    0.296757039096009  0.0000
  Ge     Ge        0.825959623890855    0.219141227318874    0.734251037458640  0.0000
  Ge     Ge        0.674809059874971    0.706422469039466    0.744916564336195  0.0000
  Ge     Ge        0.855940711597765    0.619320088478536    0.733968888572006  0.0000
  Ge     Ge        0.644791766937394    0.303517306900248    0.745806130137685  0.0000
  Ge     Ge        0.176098310123921    0.717697012743364    0.294597321682040  0.0000
  Ge     Ge        0.328772099113129    0.227707587100766    0.300801162784250  0.0000
  Ge     Ge        0.656850452138083    0.302973560308644    0.060993543040717  0.0000
  Ge     Ge        0.863830680300988    0.622519567953697    0.049504360698791  0.0000
  Ge     Ge        0.337182115086131    0.232230446112109    0.990163632278851  0.0000
  Ge     Ge        0.173891125372790    0.704025715928337    0.976792589664023  0.0000
  Ge     Ge        0.151485025729612    0.300546526260316    0.979320059141406  0.0000
  Ge     Ge        0.682657938921540    0.707595122010377    0.060462425668022  0.0000
  Ge     Ge        0.838877439797004    0.220516754761124    0.048317177077996  0.0000
  Si     Si        0.961788282331344    0.932645656763572    0.111090322122232  0.0000
  Si     Si        0.452481633715946    0.930704794206434    0.934873060641396  0.0000
  Si     Si        0.059552656894396    0.992608292028102    0.864984716443914  0.0000
  Si     Si        0.352053972555052    0.623144569137450    0.985183596354648  0.0000
  O1     O1        0.083315012510547    0.205158738872509    0.384348671226624  0.0000
  O1     O1        0.427655703778902    0.734762204765907    0.366797659937361  0.0000
  O1     O1        0.870584607334840    0.065726789217944    0.642225933544585  0.0000
  O1     O1        0.623810234800986    0.850363884963697    0.653098528987538  0.0000
  O1     O1        0.922854145860426    0.725949234988818    0.648002652321030  0.0000
  O1     O1        0.575394338881231    0.192106279961811    0.665895742238680  0.0000
  O1     O1        0.127524739562482    0.857078110275218    0.393025136964677  0.0000
  O1     O1        0.372965719250577    0.077395453170847    0.396986143049917  0.0000
  O1     O1        0.977433627990186    0.957639185900730    0.467446822422168  0.0000
  O1     O1        0.472247632351348    0.941084653052326    0.577228338132574  0.0000
  O3     O3        0.029080235072769    0.970042691508240    0.208940421940653  0.0000
  O1     O1        0.529410258245871    0.997555681393408    0.333353991926197  0.0000
  O3     O3        0.026309175475203    0.985630402798150    0.720495359193411  0.0000
  O3     O3        0.521393410751366    0.945589111430015    0.838071430497371  0.0000
  O1     O1        0.591160948841289    0.198720986495438    0.149365173976304  0.0000
  O3     O3        0.932219535658299    0.741268337417229    0.129076599000388  0.0000
  O3     O3        0.389979777053564    0.081094097347522    0.903908232720193  0.0000
  O3     O3        0.130351533343631    0.858998223866106    0.881553615700304  0.0000
  O2     O2        0.414725976043705    0.743241698489026    0.920963778190376  0.0000
  O3     O3        0.087884324772687    0.183203383489134    0.889136245259144  0.0000
  O1     O1        0.636935176345818    0.853580744791186    0.158242216506804  0.0000
  O3     O3        0.891867750247501    0.067926862979227    0.132412414956480  0.0000
  O3     O3        0.483896733029231    0.942226466225804    0.081397192401058  0.0000
  O2     O2        0.991624812093206    0.945863042754694    0.962877421625316  0.0000
  O1     O1        0.161261869584101    0.513085011970853    0.350538102653013  0.0000
  O1     O1        0.343894034319085    0.429900431229742    0.362906105412373  0.0000
  O1     O1        0.840610567148831    0.419840475480017    0.671216890042130  0.0000
  O1     O1        0.656820895537798    0.503279468128228    0.685913742922314  0.0000
  O1     O1        0.232633638406404    0.195642177120928    0.292234224385761  0.0000
  O1     O1        0.272243259630262    0.752276978763085    0.307033868253098  0.0000
  O1     O1        0.729902562955954    0.186395459532059    0.738438312702003  0.0000
  O1     O1        0.771202619909478    0.737013822582924    0.735464019775189  0.0000
  O1     O1        0.117599852357895    0.323051122643364    0.133423955097923  0.0000
  O3     O3        0.370208882640520    0.582943626808650    0.134930342191697  0.0000
  O1     O1        0.863378471115025    0.210940559381369    0.888434762651852  0.0000
  O1     O1        0.648442086698520    0.721104920230997    0.904814078683468  0.0000
  O1     O1        0.887830125554689    0.594734943821664    0.890300987289691  0.0000
  O1     O1        0.621516161325650    0.321045176830318    0.906229560812197  0.0000
  O1     O1        0.147057536007809    0.727880965060647    0.134582184563110  0.0000
  O1     O1        0.366298761351608    0.208820068523538    0.147982103090410  0.0000
  O1     O1        0.670909964098847    0.504401809402022    0.120397385727840  0.0000
  O1     O1        0.856662627934041    0.421275996903559    0.112004562726763  0.0000
  O3     O3        0.350849030830398    0.434345881718413    0.922718293243493  0.0000
  O1     O1        0.154770613706966    0.503923027282165    0.917794604524984  0.0000
  O1     O1        0.742720373026651    0.188489765902409    0.060236549142560  0.0000
  O1     O1        0.779281476750487    0.738451257103182    0.057923891214898  0.0000
  O1     O1        0.240525396707059    0.201970869564898    0.980720285194326  0.0000
  O3     O3        0.271937029555096    0.726013209311966    0.971849080525969  0.0000
