data_c00694.vasp
_audit_creation_method             Generated by GULP
_audit_author_name                 Salvador R. G. Balestra
_symmetry_space_group_name_H-M     'P 1             '
_symmetry_Int_Tables_number        1

loop_
_symmetry_equiv_pos_site_id
_symmetry_equiv_pos_as_xyz
_cell_length_a                       17.4593
_cell_length_b                        7.9287
_cell_length_c                       10.3496
_cell_angle_alpha                   90.9806
_cell_angle_beta                    90.9432
_cell_angle_gamma                   88.6437

loop_
_atom_site_label
_atom_site_type_symbol
_atom_site_fract_x
_atom_site_fract_y
_atom_site_fract_z
_atom_site_charge
  Ge     Ge        0.052090000000021    0.000000000000000    0.372269999999958  0.0000
  Ge     Ge        0.448480089496040    0.961473813594613    0.366161317668441  0.0000
  Ge     Ge        0.942544721446187    0.977992574862781    0.618754801302464  0.0000
  Ge     Ge        0.559547424297772    0.016177398247981    0.127140910847114  0.0000
  Ge     Ge        0.936285352734432    0.990672451141103    0.129555709127382  0.0000
  Ge     Ge        0.449655207700328    0.955495793853045    0.873620513145402  0.0000
  Ge     Ge        0.044668819250724    0.005434694723616    0.879513827705949  0.0000
  Ge     Ge        0.149787434605839    0.310883292546002    0.258037589980199  0.0000
  Ge     Ge        0.356404867786011    0.640708412162578    0.257426449344138  0.0000
  Ge     Ge        0.828665489843399    0.275241059174265    0.707293005316896  0.0000
  Ge     Ge        0.654168501890939    0.720048103022598    0.698490124183456  0.0000
  Ge     Ge        0.837540155710057    0.684209482263868    0.695684946394341  0.0000
  Ge     Ge        0.643576493358890    0.312657042381992    0.706850947928450  0.0000
  Ge     Ge        0.171228737365372    0.707547475818707    0.262651650812524  0.0000
  Ge     Ge        0.645739228136351    0.338270339644831    0.019802515756066  0.0000
  Ge     Ge        0.326289384077354    0.245900513062858    0.943439712856099  0.0000
  Ge     Ge        0.168895579662499    0.718179680665033    0.949878794821010  0.0000
  Ge     Ge        0.352607412039238    0.644943343374861    0.945788709278945  0.0000
  Ge     Ge        0.144491862439388    0.319395659719824    0.942696151937536  0.0000
  Ge     Ge        0.835897436791724    0.305970714840312    0.020096996027062  0.0000
  Si     Si        0.544487062093685    0.011808533349342    0.620552132305832  0.0000
  Si     Si        0.330883917934511    0.249561227196307    0.251295491099564  0.0000
  Si     Si        0.840507955498339    0.691519444275280    0.995309177081816  0.0000
  Si     Si        0.657866934157174    0.721422766580112    0.998368039566797  0.0000
  O1     O1        0.085982157530018    0.196009076794578    0.340661365354939  0.0000
  O1     O1        0.417823181171909    0.758538381666757    0.351042751099382  0.0000
  O1     O1        0.878914104799186    0.145900135620783    0.604103436131154  0.0000
  O3     O3        0.601677908729283    0.851869911945769    0.597410558341436  0.0000
  O1     O1        0.895248714571458    0.792032140315027    0.595293261480012  0.0000
  O3     O3        0.586918618653292    0.187954005969621    0.606896619383727  0.0000
  O1     O1        0.125000394850126    0.854631817228714    0.357617844891738  0.0000
  O3     O3        0.375938333020290    0.104025232381847    0.327738839256314  0.0000
  O1     O1        0.022561653944356    0.997771918105190    0.530530914157916  0.0000
  O3     O3        0.471218173775543    0.999831120316701    0.527987998392175  0.0000
  O1     O1        0.970151839979598    0.957259037565235    0.283822665115297  0.0000
  O1     O1        0.530946734818235    0.989300879316943    0.282459115737003  0.0000
  O1     O1        0.968985531012401    0.974189578892893    0.780359798236590  0.0000
  O3     O3        0.520841398230352    0.001920487124237    0.770525592068219  0.0000
  O1     O1        0.590577947303252    0.218550030157952    0.115335615607667  0.0000
  O3     O3        0.869240850071257    0.839888740222252    0.087000505074650  0.0000
  O1     O1        0.375447001966811    0.100899581065649    0.854217350822151  0.0000
  O1     O1        0.119098587708937    0.861026814501763    0.858504047106797  0.0000
  O1     O1        0.413499348304210    0.757222377919215    0.853422855759944  0.0000
  O1     O1        0.078392038951231    0.205430891673433    0.857821842100878  0.0000
  O3     O3        0.636519459177839    0.880923890795795    0.086653134527646  0.0000
  O1     O1        0.887947976287797    0.181054265379647    0.123041246548386  0.0000
  O1     O1        0.481965795933404    0.973587361314343    0.031100945271024  0.0000
  O1     O1        0.016102847581421    0.983466153355232    0.037356177906871  0.0000
  O1     O1        0.155330221360626    0.510281529157808    0.322471378184930  0.0000
  O3     O3        0.348114932676168    0.435078803557601    0.310727201464334  0.0000
  O1     O1        0.833915225109956    0.477293492223342    0.650650094181736  0.0000
  O1     O1        0.644704083900970    0.513547622759630    0.648538591566517  0.0000
  O3     O3        0.240533097305811    0.215443495452435    0.257251609439566  0.0000
  O1     O1        0.267780064377395    0.738632041138813    0.262764776465406  0.0000
  O1     O1        0.734048848930974    0.223574545470647    0.710714840531140  0.0000
  O1     O1        0.747590135613246    0.776306132497973    0.687792561131439  0.0000
  O1     O1        0.117442913398410    0.328519205976905    0.101977666134453  0.0000
  O1     O1        0.388263895489446    0.638511808189687    0.101998878569964  0.0000
  O1     O1        0.863535162650193    0.262818357662324    0.863982382478239  0.0000
  O3     O3        0.619730881695348    0.739787108634391    0.856229109705237  0.0000
  O3     O3        0.875371889345050    0.698682245296014    0.853314306893789  0.0000
  O1     O1        0.612601608579138    0.317730647574137    0.863485856214204  0.0000
  O1     O1        0.137026268055464    0.723623963572291    0.106741419804962  0.0000
  O3     O3        0.357981524756559    0.247149151140667    0.103685286645259  0.0000
  O3     O3        0.632834280641017    0.549931580936673    0.064493040018258  0.0000
  O3     O3        0.859556801924100    0.512778119626710    0.059399667418129  0.0000
  O1     O1        0.341159923625966    0.445736714763953    0.885683063206654  0.0000
  O1     O1        0.153819445231544    0.517859750374375    0.886065948054702  0.0000
  O1     O1        0.739826722128961    0.274401127104238    0.034827030285315  0.0000
  O2     O2        0.748402888486848    0.697902589498927    0.968180429819878  0.0000
  O1     O1        0.230653134888614    0.208602606351116    0.937184994024619  0.0000
  O1     O1        0.265301892415285    0.751849889369987    0.951207687915172  0.0000
