data_c00623.vasp
_audit_creation_method             Generated by GULP
_audit_author_name                 Salvador R. G. Balestra
_symmetry_space_group_name_H-M     'P 1             '
_symmetry_Int_Tables_number        1

loop_
_symmetry_equiv_pos_site_id
_symmetry_equiv_pos_as_xyz
_cell_length_a                       17.6582
_cell_length_b                        7.8205
_cell_length_c                       10.1816
_cell_angle_alpha                   91.6617
_cell_angle_beta                    89.6897
_cell_angle_gamma                   90.9339

loop_
_atom_site_label
_atom_site_type_symbol
_atom_site_fract_x
_atom_site_fract_y
_atom_site_fract_z
_atom_site_charge
  Ge     Ge        0.052090000000021    0.000000000000000    0.372269999999958  0.0000
  Ge     Ge        0.444516796905076    0.060451248123479    0.406903816760233  0.0000
  Ge     Ge        0.950619222964706    0.016596918284681    0.633963746340670  0.0000
  Ge     Ge        0.548359572045968    0.976712764423651    0.652888564293520  0.0000
  Ge     Ge        0.556362339994310    0.985214660196806    0.159700461882024  0.0000
  Ge     Ge        0.048833184677996    0.970791276926509    0.903416070166562  0.0000
  Ge     Ge        0.167432073425082    0.300525715851585    0.286200568643159  0.0000
  Ge     Ge        0.321895840340082    0.771723002822378    0.288962899656195  0.0000
  Ge     Ge        0.852691291825080    0.333982957801534    0.712236098231819  0.0000
  Ge     Ge        0.647632217785270    0.664646953236123    0.723922940327244  0.0000
  Ge     Ge        0.827575309463207    0.741229276233274    0.719934630809784  0.0000
  Ge     Ge        0.673649791313520    0.260207122328654    0.716438715765874  0.0000
  Ge     Ge        0.351966819325414    0.370904495217428    0.297812436173967  0.0000
  Ge     Ge        0.674321133693791    0.266049157488678    0.035210348013203  0.0000
  Ge     Ge        0.831048671424056    0.738156443401420    0.037358387238183  0.0000
  Ge     Ge        0.354274091383867    0.337294321000573    0.980203427708441  0.0000
  Ge     Ge        0.158080239070222    0.660807022807877    0.950345261313490  0.0000
  Ge     Ge        0.331814959893709    0.743070760944107    0.960850883722253  0.0000
  Ge     Ge        0.172552701178910    0.262517019102783    0.971750322063570  0.0000
  Ge     Ge        0.648509751389733    0.666535768335418    0.044315293766456  0.0000
  Si     Si        0.940276646762164    0.038266501512621    0.146600386855934  0.0000
  Si     Si        0.453966110063742    0.029257806562482    0.910707213355759  0.0000
  Si     Si        0.151103845404206    0.688156842501269    0.271343265109439  0.0000
  Si     Si        0.852433494031064    0.339455055655678    0.023993000412111  0.0000
  O1     O1        0.119744890296508    0.156456487641996    0.382169580655875  0.0000
  O1     O1        0.366001358242889    0.939710986909873    0.366268378290173  0.0000
  O1     O1        0.918536617061013    0.222361501378862    0.622475666990148  0.0000
  O1     O1        0.583185729090432    0.774153165439969    0.634259282830257  0.0000
  O1     O1        0.875044065972174    0.875791179948727    0.618542634443644  0.0000
  O1     O1        0.620393740924458    0.120691176523269    0.621944350127535  0.0000
  O3     O3        0.080080372650058    0.806140282357436    0.301095350039567  0.0000
  O1     O1        0.416546274821454    0.267476415992322    0.391598654838103  0.0000
  O1     O1        0.023826340451810    0.967338625866068    0.532214485594447  0.0000
  O1     O1        0.469404048165806    0.016610642383980    0.565396929404659  0.0000
  O3     O3        0.969104190150384    0.058653538487494    0.295449784892972  0.0000
  O1     O1        0.524818146749002    0.011555988185313    0.318035543436900  0.0000
  O1     O1        0.979035270350663    0.998403185315568    0.795258444157252  0.0000
  O3     O3        0.526271745006580    0.001546751759159    0.819955463145920  0.0000
  O1     O1        0.634016286227072    0.113295336197655    0.130131394600032  0.0000
  O3     O3        0.877025753067219    0.888570529946111    0.136718184036489  0.0000
  O3     O3        0.416120997148988    0.211778754796575    0.888854354561573  0.0000
  O1     O1        0.082275623911197    0.763335983695130    0.893102508801783  0.0000
  O3     O3        0.392493441826776    0.878573849742612    0.879915104733690  0.0000
  O1     O1        0.124954106417321    0.106397670539695    0.882546290212104  0.0000
  O1     O1        0.583397167342937    0.777098788753681    0.136214110411653  0.0000
  O2     O2        0.909927157033752    0.221965941345043    0.102720712753304  0.0000
  O3     O3        0.479479051573918    0.029553528370509    0.062851615539622  0.0000
  O3     O3        0.014223512974987    0.990331724593745    0.062319236987102  0.0000
  O3     O3        0.146019261581928    0.507584528911403    0.342677901221202  0.0000
  O1     O1        0.346206766388517    0.579456188124420    0.353092761385998  0.0000
  O1     O1        0.840376757603724    0.535025729013051    0.658299570204075  0.0000
  O1     O1        0.661038652616757    0.463941935715491    0.659752143784621  0.0000
  O1     O1        0.263278440859464    0.275876762962136    0.299271610376188  0.0000
  O3     O3        0.225381741630515    0.798559063232955    0.313288905140595  0.0000
  O1     O1        0.768505315776790    0.218913035249612    0.707272149655688  0.0000
  O1     O1        0.732281774841000    0.779064859532189    0.725525314732077  0.0000
  O1     O1        0.136930827028710    0.253837081701718    0.129591309820718  0.0000
  O1     O1        0.346890897771878    0.770157220746943    0.126244862069609  0.0000
  O3     O3        0.881399967200567    0.355792301948710    0.875488558905602  0.0000
  O1     O1        0.618310596209998    0.649711675912006    0.884434809116233  0.0000
  O1     O1        0.861392160181460    0.759855884213678    0.879023995019769  0.0000
  O1     O1        0.642503640180960    0.250834760193402    0.876887130287013  0.0000
  O3     O3        0.163087397255627    0.629463661994926    0.119369601924307  0.0000
  O1     O1        0.385073047115630    0.366518534874059    0.138704765289701  0.0000
  O1     O1        0.654927383000186    0.464198020601002    0.102923085136650  0.0000
  O3     O3        0.847366550959412    0.529602916051347    0.087358674813427  0.0000
  O1     O1        0.347485876311635    0.533027205358546    0.912044091801343  0.0000
  O1     O1        0.158822974752405    0.452740647767550    0.894168795092103  0.0000
  O3     O3        0.771485963071440    0.243587759290893    0.025261907657876  0.0000
  O1     O1        0.735628272929769    0.769165559063678    0.048589238578161  0.0000
  O1     O1        0.268202889174638    0.230375294648577    0.981990524214824  0.0000
  O1     O1        0.239485700858477    0.777152419568190    0.918751833412219  0.0000
