data_c00691.vasp
_audit_creation_method             Generated by GULP
_audit_author_name                 Salvador R. G. Balestra
_symmetry_space_group_name_H-M     'P 1             '
_symmetry_Int_Tables_number        1

loop_
_symmetry_equiv_pos_site_id
_symmetry_equiv_pos_as_xyz
_cell_length_a                       17.6099
_cell_length_b                        7.8062
_cell_length_c                       10.2025
_cell_angle_alpha                   89.5442
_cell_angle_beta                    90.3828
_cell_angle_gamma                   91.5052

loop_
_atom_site_label
_atom_site_type_symbol
_atom_site_fract_x
_atom_site_fract_y
_atom_site_fract_z
_atom_site_charge
  Ge     Ge        0.052090000000021    0.000000000000000    0.372269999999958  0.0000
  Ge     Ge        0.444876333207217    0.059184949040638    0.385045953142899  0.0000
  Ge     Ge        0.943877177154164    0.066439668414270    0.615031822371144  0.0000
  Ge     Ge        0.552633756538798    0.000552262928934    0.134326363373836  0.0000
  Ge     Ge        0.956855286335015    0.069035550381382    0.110401202190758  0.0000
  Ge     Ge        0.445078227065310    0.055614753768557    0.884118495143802  0.0000
  Ge     Ge        0.059959561383371    0.004191647778438    0.855060039224304  0.0000
  Ge     Ge        0.175147299073265    0.283105516081860    0.298627521161247  0.0000
  Ge     Ge        0.327326417163766    0.767302359944553    0.299420040723954  0.0000
  Ge     Ge        0.848482349041374    0.377314171566569    0.730604533329731  0.0000
  Ge     Ge        0.639381913592399    0.703094806729838    0.746250666982807  0.0000
  Ge     Ge        0.821324277175941    0.779922993258787    0.730994305454495  0.0000
  Ge     Ge        0.666715882101127    0.300237873049644    0.741130213112382  0.0000
  Ge     Ge        0.146930341371268    0.686113428672853    0.297740729724018  0.0000
  Ge     Ge        0.676171557832443    0.289644472415910    0.060333433180337  0.0000
  Ge     Ge        0.829127369691927    0.783025356971312    0.048207247472976  0.0000
  Ge     Ge        0.151982406081604    0.688451206145066    0.978576543801744  0.0000
  Ge     Ge        0.179680726747775    0.287509165453951    0.978085827370544  0.0000
  Ge     Ge        0.650850198452998    0.691907415798620    0.064579852570992  0.0000
  Ge     Ge        0.854342384497086    0.379202972938453    0.051645399003768  0.0000
  Si     Si        0.546406229462500    0.014865280411486    0.637555664169196  0.0000
  Si     Si        0.350638536770346    0.366292540979252    0.304678137869679  0.0000
  Si     Si        0.356552383161035    0.367825531081665    0.999320618697761  0.0000
  Si     Si        0.331624582916916    0.762282830329134    0.991688114536142  0.0000
  O1     O1        0.127906969931890    0.140593945878088    0.397382871458236  0.0000
  O1     O1        0.375331370014384    0.902339046322184    0.403100956287899  0.0000
  O1     O1        0.916185747891192    0.270725808194262    0.645365084573289  0.0000
  O3     O3        0.570046450461424    0.821490416935247    0.669597584991414  0.0000
  O1     O1        0.867262573224374    0.931159703514047    0.636686796141310  0.0000
  O3     O3        0.617915320060958    0.142932258566064    0.655593888608642  0.0000
  O1     O1        0.082897770042732    0.794792942298343    0.389990724451657  0.0000
  O3     O3        0.409559501360580    0.264381657429837    0.394213120422580  0.0000
  O1     O1        0.972078266539916    0.048603167765243    0.453586827754493  0.0000
  O3     O3        0.521097382751452    0.028491785221600    0.486055192782024  0.0000
  O1     O1        0.032397907782227    0.025751693019694    0.206149254580682  0.0000
  O1     O1        0.476130729211966    0.037510857756078    0.227039816247987  0.0000
  O1     O1        0.025957673577580    0.013078770530013    0.697007446293954  0.0000
  O3     O3        0.473323638559899    0.066213153092568    0.721644272928712  0.0000
  O1     O1        0.625685113777280    0.149129765775804    0.156061770544330  0.0000
  O1     O1        0.882909169284810    0.923905884885730    0.137371301574227  0.0000
  O3     O3        0.418360796801770    0.262894658133497    0.922828730964886  0.0000
  O1     O1        0.088898699001243    0.799003158834067    0.885803766471715  0.0000
  O3     O3        0.373918422608680    0.898567255163452    0.898081218268820  0.0000
  O1     O1        0.138615450594606    0.135466521283033    0.880156766579938  0.0000
  O1     O1        0.589081714625054    0.800661677070233    0.159446816149325  0.0000
  O1     O1        0.923112667179978    0.271405160524557    0.134502656088699  0.0000
  O1     O1        0.523587653949815    0.006649490151164    0.971962048104883  0.0000
  O1     O1        0.984746919861450    0.061392035784344    0.948605394574538  0.0000
  O1     O1        0.156153718449620    0.484084794802278    0.356979124391891  0.0000
  O3     O3        0.339998195324941    0.557005265668986    0.353512978066671  0.0000
  O1     O1        0.836167921866396    0.579475861717117    0.668149526784673  0.0000
  O1     O1        0.647674559528392    0.501648987668041    0.680812626602162  0.0000
  O3     O3        0.272109361270243    0.255873989161414    0.306909679808646  0.0000
  O1     O1        0.232301891446900    0.801235141237978    0.302208450754193  0.0000
  O1     O1        0.762471355615445    0.266993390153817    0.727745911093577  0.0000
  O1     O1        0.725453123067854    0.811769994239721    0.734878401772609  0.0000
  O1     O1        0.147672647222679    0.268148673924601    0.136485946535103  0.0000
  O3     O3        0.360365911577033    0.792978807765331    0.139931541985525  0.0000
  O1     O1        0.878831382513318    0.400860749989035    0.889184450954828  0.0000
  O1     O1        0.616383727259538    0.670647690455266    0.906981791675008  0.0000
  O1     O1        0.858042828948381    0.795161077637141    0.887134245444241  0.0000
  O1     O1        0.641041279686311    0.284359810128265    0.902530515401040  0.0000
  O1     O1        0.118777918818339    0.676506663670091    0.136156026745528  0.0000
  O2     O2        0.379037396899965    0.373412179990803    0.153299225623878  0.0000
  O1     O1        0.667500700880823    0.492902005018133    0.124686232928860  0.0000
  O1     O1        0.842448901321326    0.579144498281797    0.111538227795997  0.0000
  O2     O2        0.349159435469531    0.565165722287395    0.949956952826146  0.0000
  O1     O1        0.157503675149419    0.486083567248360    0.917740871213767  0.0000
  O1     O1        0.771732032549761    0.254358535702973    0.056826024650110  0.0000
  O1     O1        0.733646167861084    0.816184167559816    0.053833308956289  0.0000
  O3     O3        0.277106360132028    0.266827066629017    0.978884315067001  0.0000
  O3     O3        0.241754725285061    0.787115962617067    0.983040914676299  0.0000
