data_c00660.vasp
_audit_creation_method             Generated by GULP
_audit_author_name                 Salvador R. G. Balestra
_symmetry_space_group_name_H-M     'P 1             '
_symmetry_Int_Tables_number        1

loop_
_symmetry_equiv_pos_site_id
_symmetry_equiv_pos_as_xyz
_cell_length_a                       17.7723
_cell_length_b                        7.8687
_cell_length_c                       10.3614
_cell_angle_alpha                   89.9210
_cell_angle_beta                    90.1609
_cell_angle_gamma                   89.2317

loop_
_atom_site_label
_atom_site_type_symbol
_atom_site_fract_x
_atom_site_fract_y
_atom_site_fract_z
_atom_site_charge
  Ge     Ge        0.052090000000021    0.000000000000000    0.372269999999958  0.0000
  Ge     Ge        0.452902704035505    0.961175189510330    0.388686162986094  0.0000
  Ge     Ge        0.947450225415825    0.997184426568640    0.623639515585241  0.0000
  Ge     Ge        0.558624179918042    0.974221058548465    0.130225871715608  0.0000
  Ge     Ge        0.951156822822545    0.990495496277206    0.111757724750866  0.0000
  Ge     Ge        0.447692493429754    0.970345044546379    0.882366680942413  0.0000
  Ge     Ge        0.060964639803537    0.996871773071882    0.864472627816201  0.0000
  Ge     Ge        0.153311017830831    0.308109037303582    0.300622200001276  0.0000
  Ge     Ge        0.353813193806885    0.653383736859228    0.304630783120069  0.0000
  Ge     Ge        0.845196930039892    0.306292096219921    0.739331670077509  0.0000
  Ge     Ge        0.649219413582726    0.667855783966427    0.752529812251954  0.0000
  Ge     Ge        0.828382042437864    0.714967209382169    0.740523005038785  0.0000
  Ge     Ge        0.665438051536118    0.260507256630442    0.746844810501569  0.0000
  Ge     Ge        0.173558323590938    0.714685393601548    0.299304470384230  0.0000
  Ge     Ge        0.332196872787614    0.245992468931959    0.304226833527314  0.0000
  Ge     Ge        0.672624994912159    0.265071786731239    0.059566507927754  0.0000
  Ge     Ge        0.833895969347046    0.701472728992140    0.053499770119988  0.0000
  Ge     Ge        0.176678783236422    0.711130656080483    0.987089206372295  0.0000
  Ge     Ge        0.358811596814994    0.648501386732567    0.994160869269096  0.0000
  Ge     Ge        0.154874483847077    0.309341540781216    0.986774201677049  0.0000
  Si     Si        0.550467047156079    0.977826881686595    0.642211794265683  0.0000
  Si     Si        0.333630750080876    0.251383883204578    0.998153976635165  0.0000
  Si     Si        0.657135179987578    0.659193531474154    0.061641492309199  0.0000
  Si     Si        0.849794337387197    0.304863062735600    0.047640159026211  0.0000
  O1     O1        0.090809703549932    0.196944702827027    0.392272986897678  0.0000
  O1     O1        0.413504228516720    0.765022734325924    0.402354630823345  0.0000
  O1     O1        0.911330141135175    0.196606425545476    0.653889646926258  0.0000
  O3     O3        0.580189546473786    0.790378289693546    0.681324262476710  0.0000
  O1     O1        0.879086837886779    0.849791398448886    0.647107430592632  0.0000
  O3     O3        0.614116040777938    0.117610712722808    0.658503147457700  0.0000
  O1     O1        0.121418638083414    0.847593309639127    0.394907569618823  0.0000
  O1     O1        0.383168624697850    0.113747723884841    0.402216500116518  0.0000
  O1     O1        0.973993480505071    0.978518469858471    0.464519292082828  0.0000
  O3     O3        0.527436437418209    0.982000222189820    0.492494182885470  0.0000
  O1     O1        0.025914578172981    0.978170551633308    0.212275622343874  0.0000
  O1     O1        0.486175636852130    0.990996027896471    0.234369611852114  0.0000
  O1     O1        0.029681263804885    0.971117179778951    0.708928858611770  0.0000
  O3     O3        0.475731610273299    0.013453246356435    0.725493678473157  0.0000
  O1     O1        0.625739154208151    0.127652596112756    0.155778270536854  0.0000
  O1     O1        0.885784938547153    0.835527379718768    0.144769667594632  0.0000
  O3     O3        0.373742479757015    0.108828526623583    0.912562463342969  0.0000
  O1     O1        0.134271476611668    0.857835815789092    0.889470195619214  0.0000
  O1     O1        0.418032596808388    0.764276608413935    0.899477819915625  0.0000
  O1     O1        0.094788855000500    0.197367269649125    0.892035713487278  0.0000
  O3     O3        0.601186412704335    0.774707178100552    0.144883287047497  0.0000
  O3     O3        0.907652904026973    0.188743801462283    0.127146959609781  0.0000
  O1     O1        0.524636715091899    0.005281707137551    0.976712313204609  0.0000
  O1     O1        0.983379931848671    0.958614130286967    0.957626758900379  0.0000
  O1     O1        0.163346027614796    0.509879313415699    0.356163018506349  0.0000
  O1     O1        0.343029143050259    0.451214994153084    0.358942522648902  0.0000
  O1     O1        0.837182474095037    0.510156819500992    0.683819828555265  0.0000
  O1     O1        0.652072284955266    0.465670815272868    0.691174697969887  0.0000
  O1     O1        0.238591948080826    0.200145321371511    0.306880992990059  0.0000
  O1     O1        0.267845312827077    0.758210008823442    0.300938026666341  0.0000
  O1     O1        0.759322801368457    0.209536883766138    0.731496473602245  0.0000
  O1     O1        0.734034313842943    0.765922891482600    0.735552534212655  0.0000
  O1     O1        0.122470161467807    0.311850018559044    0.142639608339940  0.0000
  O1     O1        0.390539467124035    0.654316466718341    0.150582512496603  0.0000
  O3     O3        0.875173956158531    0.313957617102412    0.898698027260587  0.0000
  O3     O3        0.627999760875460    0.646868498560043    0.914586012664117  0.0000
  O1     O1        0.861102288630642    0.725967184986201    0.895862596503812  0.0000
  O1     O1        0.638758138790789    0.249035214794456    0.904904367298435  0.0000
  O1     O1        0.142425972020200    0.724521429782918    0.141698341326800  0.0000
  O3     O3        0.363178048148539    0.239644860117789    0.145034952715688  0.0000
  O3     O3        0.661809600631761    0.470323566881402    0.119117337496631  0.0000
  O3     O3        0.847510603962670    0.493551339612017    0.105509378114088  0.0000
  O3     O3        0.351713196820770    0.439189049036885    0.943787184820317  0.0000
  O1     O1        0.159237538955804    0.511315170379297    0.927615908191040  0.0000
  O3     O3        0.767902104235280    0.219628741014375    0.052773775523574  0.0000
  O3     O3        0.738685566409607    0.746662072864691    0.060728927570951  0.0000
  O3     O3        0.244674237931416    0.220313861089270    0.994500864822941  0.0000
  O1     O1        0.271503140674548    0.742996113529996    0.990510372789899  0.0000
