data_c00681.vasp
_audit_creation_method             Generated by GULP
_audit_author_name                 Salvador R. G. Balestra
_symmetry_space_group_name_H-M     'P 1             '
_symmetry_Int_Tables_number        1

loop_
_symmetry_equiv_pos_site_id
_symmetry_equiv_pos_as_xyz
_cell_length_a                       16.9552
_cell_length_b                        7.9380
_cell_length_c                       10.4310
_cell_angle_alpha                   84.1050
_cell_angle_beta                    89.8436
_cell_angle_gamma                   90.2435

loop_
_atom_site_label
_atom_site_type_symbol
_atom_site_fract_x
_atom_site_fract_y
_atom_site_fract_z
_atom_site_charge
  Ge     Ge        0.052090000000021    0.000000000000000    0.372269999999958  0.0000
  Ge     Ge        0.451914533094230    0.012596664875598    0.371077551136604  0.0000
  Ge     Ge        0.961455984665755    0.066811679189695    0.630181044389087  0.0000
  Ge     Ge        0.563433241656255    0.004852467212750    0.127754475918243  0.0000
  Ge     Ge        0.934088311250302    0.044953549136100    0.133115498654702  0.0000
  Ge     Ge        0.448461091619179    0.122259281247916    0.889385452869350  0.0000
  Ge     Ge        0.057755009617833    0.120698556316214    0.891534734280492  0.0000
  Ge     Ge        0.168568440230843    0.306933312091823    0.240016512437602  0.0000
  Ge     Ge        0.345753879140183    0.716934403743476    0.287358709106981  0.0000
  Ge     Ge        0.849033440849946    0.353939459056549    0.711759549786808  0.0000
  Ge     Ge        0.649650796707744    0.721342975725091    0.682826712595247  0.0000
  Ge     Ge        0.831626725198737    0.776239970985636    0.693374635537193  0.0000
  Ge     Ge        0.657464339534680    0.317986319359824    0.698595970720719  0.0000
  Ge     Ge        0.147966104417974    0.694024462675416    0.292187452132220  0.0000
  Ge     Ge        0.657001939318798    0.308930748599132    0.003310859526757  0.0000
  Ge     Ge        0.833475707152007    0.741624849573358    0.010375962179935  0.0000
  Ge     Ge        0.348006743607538    0.442060391416945    0.928663799159450  0.0000
  Ge     Ge        0.159897311240400    0.803236640888785    0.991196352450392  0.0000
  Ge     Ge        0.161891276092039    0.435472596609250    0.919067894788730  0.0000
  Ge     Ge        0.647748435856858    0.688549094741503    0.012083055735370  0.0000
  Si     Si        0.540375117432528    0.038794041009209    0.630523187546871  0.0000
  Si     Si        0.350771009455082    0.332652038699355    0.240552906568391  0.0000
  Si     Si        0.350960164365580    0.804406546461106    0.995331438744655  0.0000
  Si     Si        0.846286681984545    0.354540059041397    0.001443711193310  0.0000
  O1     O1        0.123817296401381    0.121013955730957    0.290693775115150  0.0000
  O1     O1        0.392517610676907    0.837570320478783    0.392235201009243  0.0000
  O1     O1        0.911239353104047    0.255398528922347    0.615046587651714  0.0000
  O3     O3        0.574202173219834    0.849634598146190    0.623483307446854  0.0000
  O1     O1        0.898772356933674    0.901797603112021    0.606612984706521  0.0000
  O3     O3        0.609513065588008    0.177113180168427    0.608200079634861  0.0000
  O1     O1        0.089477819068302    0.797198548905183    0.393212670396172  0.0000
  O3     O3        0.412531145003063    0.188258117368544    0.283901263030742  0.0000
  O1     O1        0.036117406664474    0.070596152755582    0.520111905499086  0.0000
  O3     O3        0.474983813940991    0.071281652030662    0.521198365374863  0.0000
  O1     O1        0.963917266931542    0.018807199947245    0.290334587648938  0.0000
  O1     O1        0.535662292615013    0.969858956698353    0.284592047955753  0.0000
  O1     O1        0.998965317816329    0.034609348781630    0.783862917229753  0.0000
  O3     O3        0.503739628478900    0.045489126496923    0.771236849866662  0.0000
  O1     O1        0.648054646640711    0.130230310687242    0.107008949298527  0.0000
  O1     O1        0.894096788123302    0.858664231840077    0.097651203759464  0.0000
  O1     O1        0.410417567863263    0.319332737544211    0.847253757275644  0.0000
  O1     O1        0.141665552311821    0.991799688496129    0.910032095871463  0.0000
  O3     O3        0.368690728795381    0.979045094245849    0.913210097194049  0.0000
  O1     O1        0.096167971432208    0.315987991223457    0.840193147314240  0.0000
  O1     O1        0.576476394323806    0.818206076346721    0.061517211563938  0.0000
  O3     O3        0.864203879507932    0.208456523441286    0.113787858256788  0.0000
  O1     O1        0.500076790836565    0.128866185823942    0.028865360588446  0.0000
  O1     O1        0.013774096671099    0.111588312485695    0.040074150510839  0.0000
  O1     O1        0.129995816491484    0.480370350890097    0.304989055774371  0.0000
  O3     O3        0.376517000960511    0.509235921461114    0.292767559533964  0.0000
  O1     O1        0.851638418777535    0.567195496953041    0.677725530911075  0.0000
  O1     O1        0.639392484552766    0.521907234876068    0.633913239385442  0.0000
  O3     O3        0.264724235069647    0.282520123824773    0.295953146815734  0.0000
  O1     O1        0.247359605354166    0.726692197771554    0.317259789153728  0.0000
  O1     O1        0.756085881078701    0.272368126363822    0.694376375084737  0.0000
  O1     O1        0.738417865947669    0.810760935169385    0.633420443673082  0.0000
  O1     O1        0.163720734782144    0.342584567498273    0.076172928556597  0.0000
  O3     O3        0.382151014229678    0.815920354739575    0.140439944692222  0.0000
  O3     O3        0.885488531669422    0.303552865164478    0.868892770567345  0.0000
  O1     O1        0.657370166176975    0.690494271019059    0.847801912553201  0.0000
  O1     O1        0.836776063558067    0.821750486413118    0.851432371317003  0.0000
  O1     O1        0.620030436396172    0.279021184071861    0.853137728622116  0.0000
  O1     O1        0.119106058323977    0.786309417654222    0.142533635530322  0.0000
  O3     O3        0.342585505067490    0.351797049798418    0.086188564357798  0.0000
  O1     O1        0.620131708557138    0.484465716848220    0.065401936311776  0.0000
  O3     O3        0.874247780199650    0.538854911270242    0.032600433435830  0.0000
  O3     O3        0.386222974318835    0.646044981290295    0.928031457646373  0.0000
  O1     O1        0.126792090969151    0.637543759909272    0.910589084399224  0.0000
  O3     O3        0.753665396160662    0.376721061714886    0.966790980770913  0.0000
  O1     O1        0.738665609267914    0.746712156236150    0.068348756968419  0.0000
  O1     O1        0.256724479610440    0.437073790170931    0.858852142830920  0.0000
  O3     O3        0.258919527251985    0.751434887039557    0.017800175120914  0.0000
