data_c00687.vasp
_audit_creation_method             Generated by GULP
_audit_author_name                 Salvador R. G. Balestra
_symmetry_space_group_name_H-M     'P 1             '
_symmetry_Int_Tables_number        1

loop_
_symmetry_equiv_pos_site_id
_symmetry_equiv_pos_as_xyz
_cell_length_a                       17.5233
_cell_length_b                        7.8715
_cell_length_c                       10.2593
_cell_angle_alpha                   89.1982
_cell_angle_beta                    91.4462
_cell_angle_gamma                   88.0607

loop_
_atom_site_label
_atom_site_type_symbol
_atom_site_fract_x
_atom_site_fract_y
_atom_site_fract_z
_atom_site_charge
  Ge     Ge        0.052090000000021    0.000000000000000    0.372269999999958  0.0000
  Ge     Ge        0.445969139171139    0.953993050219745    0.406604521943842  0.0000
  Ge     Ge        0.943126971593405    0.947196839911596    0.616004347486941  0.0000
  Ge     Ge        0.554258362721034    0.001459762927407    0.164339196774513  0.0000
  Ge     Ge        0.951364449827116    0.935088407016591    0.113076034316741  0.0000
  Ge     Ge        0.442362880583286    0.951232173496060    0.912388636008036  0.0000
  Ge     Ge        0.054464313296550    0.001002239136221    0.864024775096396  0.0000
  Ge     Ge        0.149473730654753    0.311084742729216    0.295776931585700  0.0000
  Ge     Ge        0.353873316823460    0.641248605913964    0.288893722043226  0.0000
  Ge     Ge        0.821497499933363    0.236916165006543    0.728681572578805  0.0000
  Ge     Ge        0.662525615238558    0.712818457678854    0.730718723351049  0.0000
  Ge     Ge        0.846146797093061    0.637499727125857    0.728674392683731  0.0000
  Ge     Ge        0.638241488217281    0.312407044607484    0.729985779097202  0.0000
  Ge     Ge        0.172167458519426    0.711805708680872    0.297757819685450  0.0000
  Ge     Ge        0.644096309332764    0.314376073912240    0.046306792330400  0.0000
  Ge     Ge        0.853460755054078    0.624377791404296    0.046503989258192  0.0000
  Ge     Ge        0.326801793193389    0.255086127134208    0.978703643277784  0.0000
  Ge     Ge        0.141733411982844    0.320572133953083    0.980427574928434  0.0000
  Ge     Ge        0.672612865843061    0.713780323856022    0.047796495748655  0.0000
  Ge     Ge        0.825541052759823    0.225424531417096    0.044905847297144  0.0000
  Si     Si        0.542707841007382    0.000908030648015    0.662756130114257  0.0000
  Si     Si        0.329547577589933    0.243709079825762    0.286399783199887  0.0000
  Si     Si        0.166477482855764    0.711218229951486    0.989575893785605  0.0000
  Si     Si        0.345764874176135    0.644888964322854    0.982971533809763  0.0000
  O1     O1        0.091833144205682    0.194492926049508    0.392439602342708  0.0000
  O1     O1        0.419230809937844    0.749459765766917    0.378411554061934  0.0000
  O1     O1        0.869185713465403    0.090516548541981    0.636996461886104  0.0000
  O3     O3        0.611132260889830    0.863982535509794    0.637692668881197  0.0000
  O1     O1        0.911443390498229    0.746601206996334    0.641827979634938  0.0000
  O3     O3        0.573085944985407    0.190255409843671    0.646278317609476  0.0000
  O1     O1        0.123841659283140    0.847339297964367    0.396398967789219  0.0000
  O3     O3        0.371986857155996    0.100179362252847    0.375248046627814  0.0000
  O1     O1        0.971924498417130    0.966800069355438    0.456681617822503  0.0000
  O3     O3        0.469817391970518    0.971687501818551    0.570928084587160  0.0000
  O1     O1        0.027199124355947    0.982735814501782    0.208487046789922  0.0000
  O1     O1        0.526220677477238    0.995649111226087    0.323062576176557  0.0000
  O1     O1        0.025620276530613    0.985905027022436    0.703868302291981  0.0000
  O3     O3        0.518320355630818    0.969437210246519    0.812245908557687  0.0000
  O1     O1        0.578779578909179    0.206731257419696    0.132156199976972  0.0000
  O1     O1        0.919416690640562    0.732617322308917    0.135627079975914  0.0000
  O1     O1        0.377538144574678    0.117218051674307    0.886028285426829  0.0000
  O3     O3        0.132762916138949    0.865651814797248    0.901734384719981  0.0000
  O3     O3        0.392490014015433    0.765543458092623    0.890775866319256  0.0000
  O1     O1        0.079330129862631    0.208010762602700    0.888233532183762  0.0000
  O1     O1        0.630799790407472    0.863632488812369    0.143469436467197  0.0000
  O1     O1        0.875858044287226    0.077305611022717    0.136565184990905  0.0000
  O1     O1        0.477649210187686    0.945240592876973    0.069269284198560  0.0000
  O1     O1        0.977196517083158    0.948600904297278    0.951746312289839  0.0000
  O1     O1        0.156475589264069    0.509609251376483    0.355402988477922  0.0000
  O3     O3        0.345485977751189    0.431845362225256    0.339650009922523  0.0000
  O1     O1        0.834409370878236    0.438271385030412    0.667014152163683  0.0000
  O1     O1        0.645490851623932    0.514163378703491    0.667977838863971  0.0000
  O3     O3        0.239504161496718    0.213500605230004    0.284893187098497  0.0000
  O1     O1        0.267620005097421    0.747034994661401    0.305410056728817  0.0000
  O1     O1        0.725179816067285    0.204313980649501    0.727994914488773  0.0000
  O1     O1        0.758777674737337    0.745801478333189    0.724598938745082  0.0000
  O1     O1        0.112963720692675    0.315994421410291    0.138508668024951  0.0000
  O3     O3        0.382397867485101    0.639721208092341    0.128612719104654  0.0000
  O1     O1        0.856112060261113    0.219503551767759    0.886415160244951  0.0000
  O1     O1        0.635980218931568    0.722615683718348    0.890707218027850  0.0000
  O1     O1        0.879642995962507    0.611386657168129    0.886196667623168  0.0000
  O1     O1        0.610704800562837    0.335331943306524    0.887938117025631  0.0000
  O3     O3        0.137302384126670    0.725283376313400    0.136677709438340  0.0000
  O3     O3        0.359139882495835    0.228862807731798    0.139461762527235  0.0000
  O1     O1        0.658294182512526    0.511420424992798    0.108607362768997  0.0000
  O1     O1        0.842163625920529    0.424831415807255    0.107098273866346  0.0000
  O3     O3        0.345254253755070    0.458930069968725    0.924052861842990  0.0000
  O3     O3        0.142179235136130    0.532375770528152    0.929693583558674  0.0000
  O1     O1        0.729216204010791    0.197168239553383    0.045818271936173  0.0000
  O1     O1        0.768777433710934    0.742904277675573    0.044827413526882  0.0000
  O1     O1        0.231116471899705    0.226824114815834    0.966166839499689  0.0000
  O2     O2        0.258568099355025    0.715643785793610    0.000370885789194  0.0000
