data_c00631.vasp
_audit_creation_method             Generated by GULP
_audit_author_name                 Salvador R. G. Balestra
_symmetry_space_group_name_H-M     'P 1             '
_symmetry_Int_Tables_number        1

loop_
_symmetry_equiv_pos_site_id
_symmetry_equiv_pos_as_xyz
_cell_length_a                       17.6030
_cell_length_b                        7.8148
_cell_length_c                       10.2137
_cell_angle_alpha                   89.8957
_cell_angle_beta                    90.1541
_cell_angle_gamma                   91.1034

loop_
_atom_site_label
_atom_site_type_symbol
_atom_site_fract_x
_atom_site_fract_y
_atom_site_fract_z
_atom_site_charge
  Ge     Ge        0.052090000000021    0.000000000000000    0.372269999999958  0.0000
  Ge     Ge        0.436716436500029    0.057458457743279    0.388078070634058  0.0000
  Ge     Ge        0.943442363588023    0.053040441544921    0.621745529903468  0.0000
  Ge     Ge        0.542482381481365    0.008460529197104    0.639681735409029  0.0000
  Ge     Ge        0.552144269762473    0.002463337065800    0.147828501229490  0.0000
  Ge     Ge        0.044902787657693    0.002581790396008    0.883184946010484  0.0000
  Ge     Ge        0.168996209971339    0.296266304669510    0.266549000211761  0.0000
  Ge     Ge        0.322082238054956    0.761498290869257    0.275759309244731  0.0000
  Ge     Ge        0.848330171917173    0.368639463111479    0.699556348968783  0.0000
  Ge     Ge        0.640473556149547    0.691856378126972    0.710375907610358  0.0000
  Ge     Ge        0.820504769391322    0.772299700065437    0.703495552608991  0.0000
  Ge     Ge        0.668335101303406    0.287644761376857    0.711489984827411  0.0000
  Ge     Ge        0.672818269539718    0.286835690575145    0.029361461709845  0.0000
  Ge     Ge        0.827359870043512    0.770881240606605    0.021685537905769  0.0000
  Ge     Ge        0.349553223608977    0.370583375228831    0.956052868065972  0.0000
  Ge     Ge        0.150987839751807    0.695760653386919    0.947918580333025  0.0000
  Ge     Ge        0.330600778304988    0.776621537107254    0.959836682202606  0.0000
  Ge     Ge        0.170407727047611    0.289934654357094    0.949796966868546  0.0000
  Ge     Ge        0.645866555226497    0.691071999032006    0.028934431224662  0.0000
  Ge     Ge        0.854181076901209    0.365591587882111    0.017285171968650  0.0000
  Si     Si        0.944466246087206    0.055510030621133    0.133010137889429  0.0000
  Si     Si        0.450332287963276    0.065050768427970    0.898089091972806  0.0000
  Si     Si        0.145062019994933    0.689754083841811    0.260973566570674  0.0000
  Si     Si        0.346039190951989    0.369102504397831    0.269284978301187  0.0000
  O1     O1        0.123952825307521    0.149556139801258    0.363875546423581  0.0000
  O1     O1        0.364887985541181    0.907675284799334    0.376305407674979  0.0000
  O1     O1        0.910582242381075    0.257113554554551    0.604035372216469  0.0000
  O1     O1        0.574450148645995    0.803792735260362    0.622382849304642  0.0000
  O1     O1        0.868705602444515    0.910563982369393    0.602667562953895  0.0000
  O1     O1        0.617489718331232    0.148616673722507    0.615132521936252  0.0000
  O3     O3        0.081885260088214    0.796737143968747    0.335665435214449  0.0000
  O3     O3        0.408185466840493    0.260454571086733    0.345577159782526  0.0000
  O1     O1        0.020817676557304    0.003087429018149    0.531606960245125  0.0000
  O1     O1        0.464759968769513    0.056504367894756    0.549775566531075  0.0000
  O3     O3        0.972147179264593    0.052238872936363    0.283001635833164  0.0000
  O1     O1        0.517610989929314    0.006901704875978    0.304581551493787  0.0000
  O1     O1        0.969721043182702    0.036141837527603    0.785435835427000  0.0000
  O3     O3        0.520400544565350    0.031057879582218    0.805742783685553  0.0000
  O1     O1        0.628145236542483    0.140334825587134    0.128624758444109  0.0000
  O3     O3        0.873354819370413    0.926121035302584    0.113711969648146  0.0000
  O3     O3        0.417472826306494    0.254548999280292    0.876077877912903  0.0000
  O1     O1        0.084548751676064    0.804263257243802    0.862170703637226  0.0000
  O3     O3        0.383733066876319    0.923734365610494    0.872100523817316  0.0000
  O1     O1        0.116357780187788    0.152851417501768    0.857997748168956  0.0000
  O1     O1        0.580360693910649    0.797406377347126    0.119139689252543  0.0000
  O3     O3        0.921942704779922    0.249030164762080    0.098841113696101  0.0000
  O3     O3        0.476421938591092    0.057238463276478    0.049205541650545  0.0000
  O3     O3        0.015613372526175    0.000556278224515    0.045680270718590  0.0000
  O3     O3        0.151938022780541    0.501627764410169    0.323071797636266  0.0000
  O3     O3        0.337505654404107    0.555528892222635    0.333356709478426  0.0000
  O1     O1        0.832985272441269    0.568870362431530    0.641181977090475  0.0000
  O1     O1        0.653824453851860    0.491618334603597    0.650853931072148  0.0000
  O3     O3        0.266151423041353    0.265035825928827    0.272193563732793  0.0000
  O3     O3        0.225114124504871    0.793038297827237    0.271341791602359  0.0000
  O1     O1        0.764014624905832    0.251779741917062    0.706912934975853  0.0000
  O1     O1        0.725032426842486    0.808885998592733    0.708066407198894  0.0000
  O1     O1        0.138937843052616    0.267918200953148    0.108900861799158  0.0000
  O1     O1        0.357790490232796    0.791148213182134    0.121544730941811  0.0000
  O1     O1        0.882129100796831    0.387581690644500    0.857430746214542  0.0000
  O1     O1        0.613036661559634    0.673327927411802    0.871138735501702  0.0000
  O1     O1        0.855748809030435    0.783149155896068    0.861302352419740  0.0000
  O1     O1        0.638828403339922    0.273722293707131    0.872014950390158  0.0000
  O3     O3        0.123703161740475    0.664391557168911    0.109723601379671  0.0000
  O3     O3        0.370973520778540    0.401440579056594    0.120221493051719  0.0000
  O1     O1        0.658768613007175    0.489596966532031    0.089773615468421  0.0000
  O1     O1        0.845940078576480    0.568235594682142    0.080101207155276  0.0000
  O1     O1        0.344306962308771    0.574073194208033    0.896442089949414  0.0000
  O1     O1        0.161663190997366    0.494521301419631    0.888324335982519  0.0000
  O1     O1        0.769046253875521    0.255600711114651    0.025488429549157  0.0000
  O1     O1        0.731398803565833    0.802575074597273    0.029109095251558  0.0000
  O1     O1        0.266196904766731    0.253849711809546    0.945298919602418  0.0000
  O1     O1        0.235047827493065    0.812533263391561    0.947202380439582  0.0000
