data_c00606.vasp
_audit_creation_method             Generated by GULP
_audit_author_name                 Salvador R. G. Balestra
_symmetry_space_group_name_H-M     'P 1             '
_symmetry_Int_Tables_number        1

loop_
_symmetry_equiv_pos_site_id
_symmetry_equiv_pos_as_xyz
_cell_length_a                       17.7551
_cell_length_b                        7.8471
_cell_length_c                       10.4924
_cell_angle_alpha                   89.9108
_cell_angle_beta                    89.6951
_cell_angle_gamma                   90.0274

loop_
_atom_site_label
_atom_site_type_symbol
_atom_site_fract_x
_atom_site_fract_y
_atom_site_fract_z
_atom_site_charge
  Ge     Ge        0.052090000000021    0.000000000000000    0.372269999999958  0.0000
  Ge     Ge        0.454345018418804    0.967902150331981    0.391300669108322  0.0000
  Ge     Ge        0.957212592758626    0.003194512950876    0.635952792339795  0.0000
  Ge     Ge        0.557056117131802    0.962552466100864    0.648705792101510  0.0000
  Ge     Ge        0.558673130122251    0.961407352861735    0.134225354687802  0.0000
  Ge     Ge        0.067948131155478    0.987553581710290    0.879825767743917  0.0000
  Ge     Ge        0.155935378678005    0.309390510493656    0.302006422964757  0.0000
  Ge     Ge        0.354607944521488    0.656450176259917    0.305040830718015  0.0000
  Ge     Ge        0.857201587845176    0.310537399296700    0.744242721074819  0.0000
  Ge     Ge        0.657553236325438    0.653482989543623    0.756541395517247  0.0000
  Ge     Ge        0.835776727373688    0.716663802186222    0.750239750410185  0.0000
  Ge     Ge        0.679177883060431    0.246583304474133    0.751671277760099  0.0000
  Ge     Ge        0.175090513684565    0.718242485098703    0.295697143469622  0.0000
  Ge     Ge        0.333853068513809    0.248923147433235    0.313695032376261  0.0000
  Ge     Ge        0.681032164707332    0.243543897921153    0.060700828132915  0.0000
  Ge     Ge        0.842970448881084    0.692436267955880    0.060704051816648  0.0000
  Ge     Ge        0.339708713212410    0.242131572839255    0.003712028633927  0.0000
  Ge     Ge        0.180051769821365    0.695652022620743    0.989133229481808  0.0000
  Ge     Ge        0.362601550837690    0.646753534731108    0.995794494143083  0.0000
  Ge     Ge        0.661013431427925    0.645147544277693    0.070877371865336  0.0000
  Si     Si        0.956489419852612    0.983040380253203    0.115733316532952  0.0000
  Si     Si        0.453505250640845    0.960453182817566    0.891160193919028  0.0000
  Si     Si        0.162148533031016    0.296786501148025    0.997846093798694  0.0000
  Si     Si        0.859434530132654    0.296237052305291    0.047227925431282  0.0000
  O1     O1        0.089380710609691    0.200898600782641    0.387258492727366  0.0000
  O1     O1        0.414922520525640    0.768911475771079    0.399899636381591  0.0000
  O1     O1        0.924240223113074    0.206502672666282    0.657848478527012  0.0000
  O1     O1        0.590034289639061    0.760695654106329    0.673165274877398  0.0000
  O1     O1        0.886099347765835    0.860782237414684    0.663978917812364  0.0000
  O1     O1        0.628171585819699    0.107442639567662    0.662578425114848  0.0000
  O1     O1        0.123404549774825    0.852986827968217    0.388387158571055  0.0000
  O1     O1        0.384755435387567    0.118375906509536    0.410827596625235  0.0000
  O1     O1        0.981431023887360    0.971350197593409    0.478456968488005  0.0000
  O1     O1        0.526605614730730    0.986352302925815    0.495008118298779  0.0000
  O3     O3        0.022832458639644    0.977583191441692    0.215671116438826  0.0000
  O1     O1        0.488789638103894    0.002635670544036    0.238950817876630  0.0000
  O1     O1        0.036620775512730    0.978482162438999    0.725847080750079  0.0000
  O3     O3        0.480126272222595    0.996841390425171    0.747694783441138  0.0000
  O1     O1        0.635425308191226    0.095395616795283    0.149860753131665  0.0000
  O3     O3        0.896977465904509    0.833166072850383    0.147471463713188  0.0000
  O3     O3        0.382689399987640    0.081843875410439    0.919962574905478  0.0000
  O1     O1        0.133627073587694    0.828674665354580    0.888222884189958  0.0000
  O3     O3        0.427036356365736    0.765303917280857    0.909269666106832  0.0000
  O3     O3        0.105943118963457    0.184978544578109    0.913888893752970  0.0000
  O1     O1        0.595513852305271    0.760790645241735    0.153838646480481  0.0000
  O2     O2        0.915169644924178    0.167949005724522    0.121853696618331  0.0000
  O3     O3        0.524072405009049    0.997907251872291    0.981973077021324  0.0000
  O3     O3        0.989891164323705    0.951040352972829    0.975079276628946  0.0000
  O1     O1        0.164349340331004    0.513350448784722    0.353888811277657  0.0000
  O1     O1        0.342315640154758    0.456760650215229    0.365099886640472  0.0000
  O1     O1        0.846527229934245    0.513573414728507    0.689273091406604  0.0000
  O1     O1        0.667751234719486    0.452438431372129    0.697008412463199  0.0000
  O1     O1        0.239841685134214    0.200601886926220    0.315632613080530  0.0000
  O1     O1        0.269742793230626    0.763026415793969    0.297455159654074  0.0000
  O1     O1        0.773484447882496    0.201002967047763    0.739446234858123  0.0000
  O1     O1        0.741548865732342    0.763688227735650    0.747667757753149  0.0000
  O3     O3        0.131800571733779    0.312884391208965    0.141643872121969  0.0000
  O1     O1        0.390847667533401    0.647642379691859    0.152306777454536  0.0000
  O3     O3        0.886572567621985    0.317892142553632    0.902132076274354  0.0000
  O1     O1        0.632824306897496    0.642939178271825    0.914425262056084  0.0000
  O1     O1        0.867527038180076    0.713587118424174    0.904010308294978  0.0000
  O1     O1        0.648829182170360    0.236660474997765    0.906698368188601  0.0000
  O1     O1        0.145249590637283    0.726268957350076    0.139853957577988  0.0000
  O1     O1        0.367338028940658    0.237988613776787    0.159397096549040  0.0000
  O1     O1        0.664672349594301    0.440819524172002    0.126346367295574  0.0000
  O3     O3        0.857299343228629    0.482256886977403    0.110989557371165  0.0000
  O1     O1        0.360897928254263    0.439941781850915    0.942062632364170  0.0000
  O3     O3        0.169609459838413    0.485381629805425    0.939875382361499  0.0000
  O3     O3        0.777150396261273    0.210855832361017    0.050153217428220  0.0000
  O1     O1        0.749213420989725    0.736485075442389    0.079720837824480  0.0000
  O3     O3        0.243658299357914    0.206378464922296    0.999343229080831  0.0000
  O1     O1        0.274839830842783    0.736204013626450    0.987582889360257  0.0000
