data_c00678.vasp
_audit_creation_method             Generated by GULP
_audit_author_name                 Salvador R. G. Balestra
_symmetry_space_group_name_H-M     'P 1             '
_symmetry_Int_Tables_number        1

loop_
_symmetry_equiv_pos_site_id
_symmetry_equiv_pos_as_xyz
_cell_length_a                       17.5047
_cell_length_b                        7.8549
_cell_length_c                       10.2613
_cell_angle_alpha                   89.6448
_cell_angle_beta                    91.1017
_cell_angle_gamma                   87.5948

loop_
_atom_site_label
_atom_site_type_symbol
_atom_site_fract_x
_atom_site_fract_y
_atom_site_fract_z
_atom_site_charge
  Ge     Ge        0.052090000000021    0.000000000000000    0.372269999999958  0.0000
  Ge     Ge        0.447910481064675    0.941226989080299    0.367159761827187  0.0000
  Ge     Ge        0.943152824348793    0.948202531268702    0.616779896893014  0.0000
  Ge     Ge        0.558269007033249    0.997773472091284    0.125858323502240  0.0000
  Ge     Ge        0.940128335464568    0.950692843667951    0.124927002208797  0.0000
  Ge     Ge        0.449442677592985    0.941812026645846    0.871022656870536  0.0000
  Ge     Ge        0.044272880770321    0.010733971183683    0.875211047703525  0.0000
  Ge     Ge        0.148324039116504    0.309395605492093    0.256960395568608  0.0000
  Ge     Ge        0.357090443262480    0.624487980229693    0.256540094768713  0.0000
  Ge     Ge        0.821042294094827    0.236775042402257    0.695631728592868  0.0000
  Ge     Ge        0.662704598681058    0.713827631625719    0.696952017519137  0.0000
  Ge     Ge        0.845611638316522    0.640166678363342    0.689935256872295  0.0000
  Ge     Ge        0.637964969098769    0.309755612376226    0.697112999635682  0.0000
  Ge     Ge        0.173198900901352    0.707209246016859    0.260189930566522  0.0000
  Ge     Ge        0.644444999765552    0.317726307006827    0.009147708653350  0.0000
  Ge     Ge        0.851207241081162    0.633292933524858    0.003585739254549  0.0000
  Ge     Ge        0.324017878081996    0.231652357055737    0.940872136632052  0.0000
  Ge     Ge        0.170639628491081    0.719866023034810    0.944791853509247  0.0000
  Ge     Ge        0.352895096631189    0.631805712050937    0.942453108261104  0.0000
  Ge     Ge        0.143474121200500    0.319750524324447    0.938483783079285  0.0000
  Si     Si        0.545321513447672    0.003763643557783    0.619462918764660  0.0000
  Si     Si        0.328238174274575    0.232100437027340    0.251358200871116  0.0000
  Si     Si        0.669238511143011    0.707691693576024    0.005348791621651  0.0000
  Si     Si        0.826585539768211    0.242513408237393    0.003064888675140  0.0000
  O1     O1        0.083977506420843    0.199663609865419    0.343680742179358  0.0000
  O1     O1        0.420146506935472    0.735934304933096    0.349679694414635  0.0000
  O1     O1        0.869638418600306    0.099504298702728    0.596394184057477  0.0000
  O3     O3        0.612294061553179    0.859590802232222    0.598782404947104  0.0000
  O1     O1        0.906753397291407    0.750805673718100    0.595082003938981  0.0000
  O3     O3        0.576586217637971    0.191465850162962    0.601854149266667  0.0000
  O1     O1        0.127084184474689    0.857053207342691    0.353256741052789  0.0000
  O3     O3        0.372229326897865    0.082224816033879    0.331518172001781  0.0000
  O1     O1        0.022735752763452    0.986575434879547    0.531697715745965  0.0000
  O3     O3        0.472028944025636    0.972769774682433    0.530306028082235  0.0000
  O1     O1        0.970116943991575    0.959260200933887    0.284855584175302  0.0000
  O1     O1        0.529126345147203    0.978110789017008    0.283348410058085  0.0000
  O1     O1        0.968274672240911    0.965043413711996    0.780462578143562  0.0000
  O3     O3        0.523322810457662    0.982598759977882    0.771277490448103  0.0000
  O1     O1        0.589369758095216    0.201707603708675    0.107828356305445  0.0000
  O1     O1        0.910372685133574    0.746796341728505    0.099597471914696  0.0000
  O1     O1        0.374086485422612    0.088565144395199    0.849758798208685  0.0000
  O1     O1        0.120427982234014    0.867401128402152    0.852566151099227  0.0000
  O1     O1        0.415176467230270    0.742138438869616    0.850435553015215  0.0000
  O1     O1        0.076476118267115    0.212587886793808    0.851687442298545  0.0000
  O3     O3        0.633747963160583    0.856071611496784    0.093461317688708  0.0000
  O3     O3        0.864185530796610    0.093921015381912    0.092871452731230  0.0000
  O1     O1        0.480151816781099    0.960118860074659    0.030451420105760  0.0000
  O1     O1        0.018146954933057    0.995619431372389    0.036516066693816  0.0000
  O1     O1        0.156247471572250    0.507933497443120    0.321473576382952  0.0000
  O3     O3        0.346474377434355    0.416793875601584    0.310549004693096  0.0000
  O1     O1        0.833458327073387    0.439349620064805    0.635287219048426  0.0000
  O1     O1        0.645758893831888    0.512251228028831    0.639196421407710  0.0000
  O3     O3        0.237887197185167    0.204330109572989    0.255954647881223  0.0000
  O1     O1        0.269767457523941    0.732067772750467    0.261217753869996  0.0000
  O1     O1        0.725579059804573    0.201568828276805    0.695680896583886  0.0000
  O1     O1        0.757891235655578    0.749830498331545    0.689819791156518  0.0000
  O1     O1        0.116610577595066    0.331374866813851    0.098861852802047  0.0000
  O1     O1        0.388801470332027    0.619743386292653    0.100009122807539  0.0000
  O3     O3        0.856790319292339    0.227842259555453    0.855731786355842  0.0000
  O3     O3        0.634244264833638    0.719600781824009    0.858652375936941  0.0000
  O1     O1        0.882626798502658    0.633664754092708    0.846939923215971  0.0000
  O1     O1        0.605831754375844    0.318441992905601    0.854328257009338  0.0000
  O1     O1        0.138635727112232    0.725426545765733    0.102779510033471  0.0000
  O3     O3        0.355627749957460    0.228153273914919    0.102676394341369  0.0000
  O3     O3        0.649679267137429    0.524371538644555    0.065240655706645  0.0000
  O3     O3        0.848482666444636    0.425416341813263    0.060311877566340  0.0000
  O1     O1        0.339058655159758    0.434364401991138    0.882123305339319  0.0000
  O1     O1        0.155339595412551    0.519950663850745    0.880740111837581  0.0000
  O3     O3        0.735725931816746    0.227339734176191    0.998385004835494  0.0000
  O3     O3        0.759749815142261    0.725281861573683    0.999109569883918  0.0000
  O1     O1        0.228420979337328    0.199377216201097    0.933984262901599  0.0000
  O1     O1        0.266986092129661    0.748274206637804    0.947454121529572  0.0000
