data_c00682.vasp
_audit_creation_method             Generated by GULP
_audit_author_name                 Salvador R. G. Balestra
_symmetry_space_group_name_H-M     'P 1             '
_symmetry_Int_Tables_number        1

loop_
_symmetry_equiv_pos_site_id
_symmetry_equiv_pos_as_xyz
_cell_length_a                       17.7933
_cell_length_b                        7.8737
_cell_length_c                       10.3446
_cell_angle_alpha                   89.5559
_cell_angle_beta                    91.0786
_cell_angle_gamma                   89.8350

loop_
_atom_site_label
_atom_site_type_symbol
_atom_site_fract_x
_atom_site_fract_y
_atom_site_fract_z
_atom_site_charge
  Ge     Ge        0.052090000000021    0.000000000000000    0.372269999999958  0.0000
  Ge     Ge        0.448147964064232    0.978389023386077    0.364853776050516  0.0000
  Ge     Ge        0.941687978217968    0.008591804576153    0.616436394721597  0.0000
  Ge     Ge        0.557854680316913    0.989791498479291    0.121777576472155  0.0000
  Ge     Ge        0.941922201849714    0.017181977548033    0.122929517972878  0.0000
  Ge     Ge        0.444505481887525    0.993332229124060    0.875107217622129  0.0000
  Ge     Ge        0.046477078383612    0.011963394940694    0.873670482430442  0.0000
  Ge     Ge        0.156207027812214    0.306455615471856    0.254381807242301  0.0000
  Ge     Ge        0.348456240423953    0.667412523814551    0.257170270460732  0.0000
  Ge     Ge        0.839191976673548    0.319389925193928    0.692373698403561  0.0000
  Ge     Ge        0.642428311783147    0.676561237071024    0.690789472299593  0.0000
  Ge     Ge        0.822059843790532    0.725470365288562    0.684102968810472  0.0000
  Ge     Ge        0.657940453406118    0.269110644576477    0.698571854656715  0.0000
  Ge     Ge        0.168551490226750    0.711798461146048    0.261459070740383  0.0000
  Ge     Ge        0.667548349614905    0.282799745996065    0.009580950587703  0.0000
  Ge     Ge        0.824366320034073    0.737549336939731    0.998132863018391  0.0000
  Ge     Ge        0.329057870501585    0.284897425341446    0.939323379533608  0.0000
  Ge     Ge        0.167390150547931    0.728274461015587    0.947657188185711  0.0000
  Ge     Ge        0.148695610179274    0.325033099444778    0.937502818188290  0.0000
  Ge     Ge        0.848670231207536    0.334291249011594    0.006430387931470  0.0000
  Si     Si        0.543331460251843    0.985844862626026    0.621712150834895  0.0000
  Si     Si        0.332761892827509    0.265684889795631    0.246864239100147  0.0000
  Si     Si        0.345265460402306    0.684376933375850    0.952243895034475  0.0000
  Si     Si        0.648065454954383    0.680557857982206    0.998034301746528  0.0000
  O1     O1        0.095725665646814    0.189624179196199    0.343944823309455  0.0000
  O1     O1        0.410897517431286    0.778594344236773    0.349849390244091  0.0000
  O1     O1        0.897926313564308    0.202180151765065    0.598677117148048  0.0000
  O3     O3        0.579189997074912    0.799689878919715    0.602551558029441  0.0000
  O1     O1        0.875197543375607    0.854151002538909    0.588482000282694  0.0000
  O3     O3        0.606758033677507    0.129453167098143    0.604208584371331  0.0000
  O1     O1        0.115680476740121    0.839328258227777    0.356756991474778  0.0000
  O3     O3        0.381716266390604    0.132297072013359    0.329276900095954  0.0000
  O1     O1        0.021183264239708    0.993816346968228    0.528904921426320  0.0000
  O3     O3        0.473332630913696    0.011676717256927    0.525787694064426  0.0000
  O1     O1        0.971257454023704    0.983153589617022    0.279717559746119  0.0000
  O1     O1        0.528606452714625    0.990838889045586    0.278605336652980  0.0000
  O1     O1        0.970462097612713    0.982325664277295    0.776222084589436  0.0000
  O3     O3        0.517061370936419    0.999421210747613    0.769612459365153  0.0000
  O1     O1        0.623884944846503    0.146956739603034    0.112461625272181  0.0000
  O1     O1        0.865844392525449    0.889478803214846    0.090234289376965  0.0000
  O1     O1        0.381355481291189    0.156275543737037    0.845259315964432  0.0000
  O1     O1        0.120431567386343    0.872256935800873    0.853659579147950  0.0000
  O3     O3        0.398468969293660    0.799774101667020    0.865407405576752  0.0000
  O1     O1        0.082975001027465    0.212023714868612    0.852259632071159  0.0000
  O3     O3        0.591966625050198    0.791013190778238    0.081706585238130  0.0000
  O1     O1        0.913416777963273    0.224127056685020    0.097886081250539  0.0000
  O1     O1        0.480181854495303    0.030315567312504    0.026853100352614  0.0000
  O1     O1        0.017725038650125    0.974071773433327    0.029558438367574  0.0000
  O1     O1        0.159890098887594    0.506254930372749    0.315922911748564  0.0000
  O3     O3        0.342998503050129    0.455880323036411    0.302262293410231  0.0000
  O1     O1        0.829758159487856    0.519961258114078    0.630607017287931  0.0000
  O1     O1        0.645369037435718    0.472265014374513    0.637099129019034  0.0000
  O3     O3        0.245309042457780    0.215665261791506    0.253850843001002  0.0000
  O1     O1        0.262150475234394    0.761611363128279    0.270324004554063  0.0000
  O1     O1        0.752256518168799    0.223065569475972    0.696993670594656  0.0000
  O1     O1        0.728111613347588    0.774529353030109    0.679002569510753  0.0000
  O1     O1        0.123630052657890    0.314500127419644    0.097626993133401  0.0000
  O3     O3        0.378150253341210    0.679737247170117    0.098465589801302  0.0000
  O1     O1        0.875683526155439    0.330722762512641    0.847376586126911  0.0000
  O3     O3        0.616729843661294    0.664779532411272    0.851727606852496  0.0000
  O1     O1        0.854339618582813    0.741285079835621    0.841673181715144  0.0000
  O1     O1        0.630158910622853    0.258626398600035    0.856793399252307  0.0000
  O1     O1        0.136613705241747    0.729247746235287    0.104456852488184  0.0000
  O3     O3        0.358484585000759    0.263463020565017    0.099278380910192  0.0000
  O3     O3        0.657385163025227    0.492938795777582    0.058102624254865  0.0000
  O1     O1        0.844378460454819    0.539063446772139    0.060589864845936  0.0000
  O3     O3        0.339002776939774    0.496719593192577    0.894547369948661  0.0000
  O1     O1        0.151243913070750    0.530093225336396    0.884248828415083  0.0000
  O1     O1        0.761769421585455    0.240020682605849    0.011176384559002  0.0000
  O3     O3        0.728388380912718    0.773737535141806    0.994487870169896  0.0000
  O1     O1        0.236228042152734    0.233815384366693    0.924616852785368  0.0000
  O3     O3        0.262704883760097    0.768968818481733    0.955976062472552  0.0000
