data_c00617.vasp
_audit_creation_method             Generated by GULP
_audit_author_name                 Salvador R. G. Balestra
_symmetry_space_group_name_H-M     'P 1             '
_symmetry_Int_Tables_number        1

loop_
_symmetry_equiv_pos_site_id
_symmetry_equiv_pos_as_xyz
_cell_length_a                       17.7319
_cell_length_b                        7.8880
_cell_length_c                       10.4111
_cell_angle_alpha                   89.4963
_cell_angle_beta                    90.6344
_cell_angle_gamma                   90.1540

loop_
_atom_site_label
_atom_site_type_symbol
_atom_site_fract_x
_atom_site_fract_y
_atom_site_fract_z
_atom_site_charge
  Ge     Ge        0.052090000000021    0.000000000000000    0.372269999999958  0.0000
  Ge     Ge        0.445213823534894    0.979772229448465    0.379187462845558  0.0000
  Ge     Ge        0.948042992082077    0.013054413795421    0.627182205062462  0.0000
  Ge     Ge        0.545783573948663    0.984357831614115    0.637661009074402  0.0000
  Ge     Ge        0.556908585238566    0.974045774503045    0.136890921976338  0.0000
  Ge     Ge        0.052794237157834    0.998922229597501    0.887870248102708  0.0000
  Ge     Ge        0.155354731408743    0.308364919148164    0.261910471031600  0.0000
  Ge     Ge        0.350080608926166    0.663736416335526    0.267808413945126  0.0000
  Ge     Ge        0.848821399032232    0.324102619328833    0.702564827769859  0.0000
  Ge     Ge        0.647816290248266    0.670548807416798    0.711413834759737  0.0000
  Ge     Ge        0.828034429402805    0.727900465550331    0.704412182345755  0.0000
  Ge     Ge        0.668632943870653    0.265615719153287    0.709322414208267  0.0000
  Ge     Ge        0.168910080556378    0.712237117231729    0.262094376663888  0.0000
  Ge     Ge        0.674297201830401    0.259160741058388    0.020799580464818  0.0000
  Ge     Ge        0.833695107276935    0.720807232158292    0.016288836446871  0.0000
  Ge     Ge        0.334249760977509    0.270033783210433    0.957681182012030  0.0000
  Ge     Ge        0.169177239916643    0.705116583263238    0.951590476837165  0.0000
  Ge     Ge        0.352878887414614    0.671655517128024    0.957148975184895  0.0000
  Ge     Ge        0.651858705720216    0.662860003273406    0.024211848498394  0.0000
  Ge     Ge        0.856079690919329    0.316915031147383    0.014875438962734  0.0000
  Si     Si        0.947188444801603    0.003895237268799    0.128423517508061  0.0000
  Si     Si        0.449676579486111    0.986084900436469    0.891885603612661  0.0000
  Si     Si        0.331442692181953    0.266797886146500    0.264046793544087  0.0000
  Si     Si        0.156378325086836    0.307703636695875    0.954579561154679  0.0000
  O1     O1        0.091937143728875    0.195366895525237    0.348139502156197  0.0000
  O1     O1        0.409988788973332    0.778238481010579    0.362997873985377  0.0000
  O1     O1        0.908869291967398    0.210604047429115    0.608639106731341  0.0000
  O1     O1        0.584013486033964    0.786283796098764    0.622642656237709  0.0000
  O1     O1        0.877889305191119    0.863504265509021    0.609027999795074  0.0000
  O1     O1        0.616023880595592    0.132173232205906    0.616043115576022  0.0000
  O1     O1        0.118853041376137    0.847247467259930    0.355115757538489  0.0000
  O3     O3        0.377757193551169    0.130713199897350    0.345776467371892  0.0000
  O1     O1        0.022117041224412    0.984029356090703    0.528131484596943  0.0000
  O1     O1        0.471030242650608    0.010417581794197    0.536670453006750  0.0000
  O3     O3        0.972716199187827    0.980283339921923    0.275784664704817  0.0000
  O1     O1        0.525199130337696    0.001493773399164    0.289933804066464  0.0000
  O1     O1        0.978833051533570    0.993036144081822    0.784780888221659  0.0000
  O3     O3        0.517091821566353    0.014298787986617    0.795320648312495  0.0000
  O1     O1        0.630020416247797    0.112633128293639    0.114570653204903  0.0000
  O3     O3        0.879295014431037    0.873508721383333    0.104696872898049  0.0000
  O3     O3        0.383146108567811    0.123805745385371    0.871478682367440  0.0000
  O1     O1        0.116446890606107    0.839343892840198    0.858341287269166  0.0000
  O3     O3        0.413683520862622    0.800371790852420    0.871389817326873  0.0000
  O3     O3        0.099194045453785    0.192565359604341    0.874092935294643  0.0000
  O1     O1        0.589698785927760    0.771887771342748    0.116475688492198  0.0000
  O3     O3        0.920409532683096    0.195834234604943    0.100603176272468  0.0000
  O3     O3        0.480350783579421    0.012571417375821    0.036384059295732  0.0000
  O3     O3        0.019503909433952    0.964678020189707    0.042012465212726  0.0000
  O1     O1        0.157684800027942    0.508901157910944    0.320062553453000  0.0000
  O3     O3        0.341823409715071    0.455630835300520    0.320710007363467  0.0000
  O1     O1        0.837384816014566    0.525304710708851    0.645065069972976  0.0000
  O1     O1        0.656994636977490    0.470604656813783    0.653031799715519  0.0000
  O3     O3        0.243847935761135    0.215628313183715    0.268923299646340  0.0000
  O1     O1        0.263255376416013    0.758752769309367    0.267329030239196  0.0000
  O1     O1        0.763035420918766    0.220045398681287    0.705974329617253  0.0000
  O1     O1        0.733718341383083    0.774382817228246    0.708029584582226  0.0000
  O3     O3        0.128955262748316    0.313793835829054    0.101399925787498  0.0000
  O1     O1        0.383853685566192    0.670539998604969    0.114072129836270  0.0000
  O1     O1        0.883697955410175    0.330770953856380    0.857779965618708  0.0000
  O1     O1        0.618757564072433    0.660990043982819    0.868427073994745  0.0000
  O1     O1        0.862480328146233    0.730582476720510    0.859914129895772  0.0000
  O1     O1        0.639757223064342    0.253584399094340    0.866466698864572  0.0000
  O1     O1        0.137749648836275    0.723353140279971    0.106166833189754  0.0000
  O3     O3        0.360284686577624    0.271865825878903    0.118244306807335  0.0000
  O1     O1        0.660659819484892    0.459635544339180    0.080798484659788  0.0000
  O1     O1        0.851338267301243    0.519017863139361    0.074704832015654  0.0000
  O1     O1        0.352519314691664    0.469614495567452    0.898047806235611  0.0000
  O3     O3        0.159817280546177    0.497465410918136    0.898472637014785  0.0000
  O1     O1        0.769377209327063    0.220644883878503    0.019592731792726  0.0000
  O1     O1        0.738938950356808    0.759780434310199    0.023638659841700  0.0000
  O3     O3        0.239226082573070    0.224371064245706    0.948977654031704  0.0000
  O1     O1        0.263338185118130    0.753707528472403    0.949337131224868  0.0000
