data_c00628.vasp
_audit_creation_method             Generated by GULP
_audit_author_name                 Salvador R. G. Balestra
_symmetry_space_group_name_H-M     'P 1             '
_symmetry_Int_Tables_number        1

loop_
_symmetry_equiv_pos_site_id
_symmetry_equiv_pos_as_xyz
_cell_length_a                       17.7451
_cell_length_b                        7.8514
_cell_length_c                       10.4628
_cell_angle_alpha                   91.1172
_cell_angle_beta                    89.6700
_cell_angle_gamma                   89.5106

loop_
_atom_site_label
_atom_site_type_symbol
_atom_site_fract_x
_atom_site_fract_y
_atom_site_fract_z
_atom_site_charge
  Ge     Ge        0.052090000000021    0.000000000000000    0.372269999999958  0.0000
  Ge     Ge        0.447998777288779    0.025309325512278    0.393970810136055  0.0000
  Ge     Ge        0.950973715133595    0.985062874598408    0.632491527672687  0.0000
  Ge     Ge        0.550235020367508    0.031504529008637    0.651245762438451  0.0000
  Ge     Ge        0.552438928653732    0.024710390217887    0.135875135392557  0.0000
  Ge     Ge        0.059838491161354    0.986507997929881    0.878741966540791  0.0000
  Ge     Ge        0.168973963267391    0.288345598415767    0.307426203397055  0.0000
  Ge     Ge        0.330090657140694    0.742626529367739    0.308266080677251  0.0000
  Ge     Ge        0.829786563369829    0.274050893083459    0.745337343381640  0.0000
  Ge     Ge        0.673697256249292    0.745571833786269    0.756902110588558  0.0000
  Ge     Ge        0.852801361947134    0.678746643189929    0.745421645698751  0.0000
  Ge     Ge        0.650594406335424    0.340776888690638    0.751754505232986  0.0000
  Ge     Ge        0.348536978765968    0.338327146063655    0.318653093377041  0.0000
  Ge     Ge        0.653898063635641    0.338563090754239    0.064125764815638  0.0000
  Ge     Ge        0.857426663824620    0.684629571350278    0.057404242307815  0.0000
  Ge     Ge        0.156356646994439    0.674137913353923    0.988414979700443  0.0000
  Ge     Ge        0.338320397488843    0.717426098537256    0.999422988613657  0.0000
  Ge     Ge        0.175178004467865    0.269249691026139    0.999537625026439  0.0000
  Ge     Ge        0.676549565448683    0.742015708685434    0.068620354771964  0.0000
  Ge     Ge        0.835260745269720    0.280565027613937    0.056512332722433  0.0000
  Si     Si        0.953335562616252    0.000353114735338    0.122026827004864  0.0000
  Si     Si        0.447325929377281    0.007322288902888    0.896418054419197  0.0000
  Si     Si        0.153899084153411    0.689750458718167    0.293379976659796  0.0000
  Si     Si        0.353641662589325    0.318140672263808    0.014895123441097  0.0000
  O1     O1        0.114576645134397    0.162478194710695    0.401666406897257  0.0000
  O1     O1        0.374006603232842    0.885303601580768    0.405900675748447  0.0000
  O1     O1        0.878944968965903    0.128993489146377    0.654317188444397  0.0000
  O1     O1        0.622142121446290    0.889583451834381    0.673927294175505  0.0000
  O1     O1        0.918633418910137    0.783638829421805    0.657748369960527  0.0000
  O1     O1        0.584601020478846    0.233560677029448    0.663560068963916  0.0000
  O3     O3        0.096900390573967    0.803425238369947    0.378298404845394  0.0000
  O1     O1        0.411719810104401    0.228099681796851    0.408495580653478  0.0000
  O1     O1        0.978700369836238    0.003803144939009    0.475829166355959  0.0000
  O1     O1        0.518768522058457    0.992277822399822    0.498465347940884  0.0000
  O3     O3        0.020643072133133    0.032841519755539    0.218171111484442  0.0000
  O1     O1        0.481448228793649    0.992318608411689    0.240262089829713  0.0000
  O1     O1        0.028454011594875    0.020348508848821    0.727073758497096  0.0000
  O3     O3        0.472288375819363    0.011103935672177    0.749588564741698  0.0000
  O1     O1        0.589997246042247    0.224938797274297    0.150225818417871  0.0000
  O3     O3        0.921789443572518    0.810150601862299    0.138650510704037  0.0000
  O2     O2        0.410068716468925    0.188507291039335    0.940320611181812  0.0000
  O1     O1        0.092219299660352    0.782067870664969    0.899702121994863  0.0000
  O3     O3        0.390115592150162    0.851116708096490    0.905731437738212  0.0000
  O1     O1        0.135567730680770    0.117085763116368    0.904837238944759  0.0000
  O1     O1        0.626188929360957    0.884173979464268    0.159544287056230  0.0000
  O3     O3        0.885434072296803    0.135384952539055    0.144393775838676  0.0000
  O3     O3        0.521140043197811    0.980963554587831    0.981296651726863  0.0000
  O3     O3        0.983758597226198    0.029020741147198    0.978304715858967  0.0000
  O3     O3        0.161049080183532    0.502986032816306    0.350977852621014  0.0000
  O1     O1        0.343016348398120    0.544016002975130    0.371617860938738  0.0000
  O1     O1        0.840883455022443    0.476441942291361    0.686537111138650  0.0000
  O1     O1        0.660959052851110    0.541920049292964    0.695582523082153  0.0000
  O1     O1        0.262680342777585    0.239048202951608    0.323668123416764  0.0000
  O3     O3        0.234603618809194    0.782998496509347    0.294186521164156  0.0000
  O1     O1        0.735326567367298    0.231302097364074    0.744589950533782  0.0000
  O1     O1        0.768292563299925    0.788731462673478    0.746580179647174  0.0000
  O1     O1        0.140508500121977    0.259110141856902    0.152215871346651  0.0000
  O1     O1        0.365369920887508    0.746034078307977    0.154580431121686  0.0000
  O1     O1        0.862824244387094    0.273728248633162    0.899061264503739  0.0000
  O1     O1        0.645536168151132    0.745945404135850    0.913226466505713  0.0000
  O1     O1        0.884728138212618    0.670406303210133    0.900105429042698  0.0000
  O1     O1        0.622638683282993    0.346516962579374    0.909224206577368  0.0000
  O3     O3        0.126733529947093    0.677047164650203    0.147086218843747  0.0000
  O3     O3        0.380397489848694    0.337509074465188    0.160614432659154  0.0000
  O1     O1        0.664078924965853    0.539523023234238    0.126121949024418  0.0000
  O1     O1        0.851550272619859    0.483718069462566    0.116793529855719  0.0000
  O3     O3        0.352673250239248    0.504049777550851    0.953427812829134  0.0000
  O1     O1        0.158544451665823    0.466085066802220    0.936753983909620  0.0000
  O1     O1        0.740909953900174    0.237954018817662    0.064149513692900  0.0000
  O1     O1        0.771049881521841    0.784686669519474    0.067575978468476  0.0000
  O3     O3        0.271329527614834    0.236337603597404    0.012033978232513  0.0000
  O1     O1        0.244561269683598    0.761451477266914    0.978924560511037  0.0000
