data_c00600.vasp
_audit_creation_method             Generated by GULP
_audit_author_name                 Salvador R. G. Balestra
_symmetry_space_group_name_H-M     'P 1             '
_symmetry_Int_Tables_number        1

loop_
_symmetry_equiv_pos_site_id
_symmetry_equiv_pos_as_xyz
_cell_length_a                       17.6233
_cell_length_b                        7.8029
_cell_length_c                       10.2451
_cell_angle_alpha                   89.8418
_cell_angle_beta                    90.8939
_cell_angle_gamma                   91.1795

loop_
_atom_site_label
_atom_site_type_symbol
_atom_site_fract_x
_atom_site_fract_y
_atom_site_fract_z
_atom_site_charge
  Ge     Ge        0.052090000000021    0.000000000000000    0.372269999999958  0.0000
  Ge     Ge        0.445264123838276    0.051944150330432    0.335599576858906  0.0000
  Ge     Ge        0.944294523307484    0.051718932406165    0.621779743841829  0.0000
  Ge     Ge        0.550838522822896    0.000754437332293    0.587714744378454  0.0000
  Ge     Ge        0.543590439000017    0.989462586012674    0.077255310553819  0.0000
  Ge     Ge        0.436214761204917    0.047454302148135    0.822993065562114  0.0000
  Ge     Ge        0.167710790194659    0.295595759492763    0.269247209674248  0.0000
  Ge     Ge        0.320673210006236    0.772069876838494    0.256453778989357  0.0000
  Ge     Ge        0.850065855114643    0.370134856567695    0.695331226887122  0.0000
  Ge     Ge        0.820935840571865    0.771621167863417    0.700831477089264  0.0000
  Ge     Ge        0.668374897666050    0.296402209528205    0.697487115732419  0.0000
  Ge     Ge        0.348785041933287    0.369115681508294    0.265781402493230  0.0000
  Ge     Ge        0.669130522227296    0.276193978714216    0.011135082301798  0.0000
  Ge     Ge        0.825499623208287    0.765370761537239    0.020197468426892  0.0000
  Ge     Ge        0.339975585482436    0.354326130759751    0.947757851568394  0.0000
  Ge     Ge        0.136433148225556    0.681208246583142    0.947210361308549  0.0000
  Ge     Ge        0.315488610283754    0.762537110218868    0.939052853673275  0.0000
  Ge     Ge        0.158537805446967    0.275675291461779    0.954747448053068  0.0000
  Ge     Ge        0.647030956788926    0.680273414397753    0.021543756275864  0.0000
  Ge     Ge        0.850235590703915    0.358055637008778    0.011577561988835  0.0000
  Si     Si        0.941970330389731    0.051440618006493    0.129969717219677  0.0000
  Si     Si        0.038237334619553    0.989991980417254    0.883260277348954  0.0000
  Si     Si        0.645124619850633    0.692445307640721    0.707837882388118  0.0000
  Si     Si        0.144474798480114    0.690963708900750    0.257723765666329  0.0000
  O1     O1        0.121124953707964    0.156128003315163    0.370725577792252  0.0000
  O1     O1        0.366894374355412    0.917930084933290    0.353005939164275  0.0000
  O1     O1        0.913545787049902    0.257473394344975    0.604787001211236  0.0000
  O3     O3        0.580785795647314    0.799714243695099    0.634128082425160  0.0000
  O1     O1        0.865751786629561    0.918345058131266    0.604541362833477  0.0000
  O1     O1        0.619987453656769    0.156701140706593    0.596841918424244  0.0000
  O3     O3        0.084299205215399    0.798523677285608    0.337129262823976  0.0000
  O1     O1        0.414807428343125    0.257728055273528    0.355195994391620  0.0000
  O1     O1        0.018270550320152    0.996345592937530    0.528973992564127  0.0000
  O1     O1        0.522238584397123    0.994975237747103    0.425350613322873  0.0000
  O3     O3        0.973822176509865    0.048470226278326    0.276693214240970  0.0000
  O1     O1        0.469153176283728    0.031570584332518    0.172656588218384  0.0000
  O3     O3        0.970421818567427    0.027536706046674    0.785934765340175  0.0000
  O1     O1        0.468626161536305    0.050150626925429    0.665569833761280  0.0000
  O1     O1        0.618523090008934    0.132430483864559    0.101591736715996  0.0000
  O3     O3        0.873035084676276    0.915185752130684    0.115611046962504  0.0000
  O1     O1        0.404935939294577    0.248878796729566    0.858315661327400  0.0000
  O3     O3        0.067801463616612    0.797425180351688    0.866186105893285  0.0000
  O1     O1        0.362199830311663    0.902639013384268    0.839114523813918  0.0000
  O3     O3        0.107592148838014    0.125353960759641    0.864501114066967  0.0000
  O1     O1        0.578266402245410    0.786218645219771    0.101236519910461  0.0000
  O3     O3        0.915164936724577    0.243044520608315    0.101611973665924  0.0000
  O1     O1        0.513551380278576    0.995858909115902    0.916642066575654  0.0000
  O2     O2        0.009961011807457    0.002622297494568    0.033178776598257  0.0000
  O3     O3        0.157498151116402    0.506078383317543    0.322494183084840  0.0000
  O1     O1        0.340519128536342    0.573162956476491    0.320689668752383  0.0000
  O1     O1        0.839193580317367    0.572661503957956    0.637082909574241  0.0000
  O3     O3        0.655250873212730    0.506536856605339    0.643891233633153  0.0000
  O1     O1        0.262904795208970    0.258765149634211    0.270872719907591  0.0000
  O3     O3        0.223292280841030    0.800048791574982    0.254927443308422  0.0000
  O1     O1        0.763790532159650    0.260981983516133    0.695423231302877  0.0000
  O3     O3        0.723684316602432    0.802058137607346    0.700917818010908  0.0000
  O1     O1        0.131427919285353    0.264455420117142    0.114861454467698  0.0000
  O1     O1        0.349640264908957    0.784943250728178    0.096677807609719  0.0000
  O1     O1        0.881344332665348    0.382598299408835    0.855163205479602  0.0000
  O3     O3        0.623352416505288    0.658156871062055    0.856815525394395  0.0000
  O1     O1        0.852288050627628    0.781760238667657    0.860578160263261  0.0000
  O1     O1        0.635228052024144    0.264168385487221    0.852291488517017  0.0000
  O3     O3        0.115304114256751    0.656070431410268    0.111073419293137  0.0000
  O1     O1        0.374324314806012    0.377058984814517    0.104417531262642  0.0000
  O1     O1        0.656828490921951    0.476865305056610    0.078009313098661  0.0000
  O1     O1        0.840585114972419    0.559180227020336    0.075316112784318  0.0000
  O1     O1        0.326266983748038    0.555484069981792    0.885838757775321  0.0000
  O1     O1        0.141891323171498    0.477015976804288    0.889600281538240  0.0000
  O1     O1        0.765135103883615    0.245358456566462    0.009364552872798  0.0000
  O1     O1        0.730042105262268    0.799287267585323    0.031938053352030  0.0000
  O1     O1        0.254374710878725    0.242227754583998    0.948648861366810  0.0000
  O1     O1        0.219637007086525    0.796841512004878    0.935429025407592  0.0000
