data_c00669.vasp
_audit_creation_method             Generated by GULP
_audit_author_name                 Salvador R. G. Balestra
_symmetry_space_group_name_H-M     'P 1             '
_symmetry_Int_Tables_number        1

loop_
_symmetry_equiv_pos_site_id
_symmetry_equiv_pos_as_xyz
_cell_length_a                       17.5994
_cell_length_b                        7.8028
_cell_length_c                       10.3074
_cell_angle_alpha                   90.3890
_cell_angle_beta                    90.6068
_cell_angle_gamma                   88.6333

loop_
_atom_site_label
_atom_site_type_symbol
_atom_site_fract_x
_atom_site_fract_y
_atom_site_fract_z
_atom_site_charge
  Ge     Ge        0.052090000000021    0.000000000000000    0.372269999999958  0.0000
  Ge     Ge        0.452452826834811    0.942321495120589    0.351187615310880  0.0000
  Ge     Ge        0.952021691437068    0.950780133537012    0.628852938454796  0.0000
  Ge     Ge        0.555627652714139    0.013639985573242    0.096232085571264  0.0000
  Ge     Ge        0.944086348385149    0.955787323646798    0.126848381179168  0.0000
  Ge     Ge        0.451292035072349    0.944195450577864    0.840627148312551  0.0000
  Ge     Ge        0.056445421222052    0.005748061752557    0.886680790853728  0.0000
  Ge     Ge        0.148727108494165    0.309439551176213    0.258011384754732  0.0000
  Ge     Ge        0.356112663525310    0.627106618471720    0.272874787092524  0.0000
  Ge     Ge        0.826561526216055    0.230567933414701    0.706209290503992  0.0000
  Ge     Ge        0.671434341913884    0.712622048520982    0.704561580963965  0.0000
  Ge     Ge        0.853332017400883    0.638596515013172    0.699313504508901  0.0000
  Ge     Ge        0.645703507304410    0.308416848858264    0.713798191833287  0.0000
  Ge     Ge        0.176212291550029    0.713846145902797    0.264173135171438  0.0000
  Ge     Ge        0.327770011063690    0.221726004690221    0.267822423045215  0.0000
  Ge     Ge        0.654940005862707    0.324877031249999    0.031412797528072  0.0000
  Ge     Ge        0.330500372845176    0.227079882660653    0.952892198729713  0.0000
  Ge     Ge        0.177928455983420    0.710717323132117    0.950239113792508  0.0000
  Ge     Ge        0.359449714175466    0.630277819539770    0.956438385679253  0.0000
  Ge     Ge        0.677065968858064    0.722846775385710    0.018063889961809  0.0000
  Si     Si        0.554021429769574    0.998487497812116    0.598603731220430  0.0000
  Si     Si        0.854786244537631    0.645753775816526    0.003902525467796  0.0000
  Si     Si        0.154213873120773    0.316405895622617    0.949764566610247  0.0000
  Si     Si        0.831415581443742    0.248973069865454    0.013279958647413  0.0000
  O1     O1        0.077891851339153    0.204132378850038    0.332995526803120  0.0000
  O1     O1        0.420884812839448    0.737598390682865    0.365343127044953  0.0000
  O1     O1        0.875211202987565    0.090293518038196    0.609851753694864  0.0000
  O3     O3        0.624875535315657    0.868104962942167    0.614171945922647  0.0000
  O1     O1        0.918331327598268    0.746689969429597    0.610861206730302  0.0000
  O3     O3        0.576333500614920    0.190782261790534    0.636656581968740  0.0000
  O1     O1        0.127604489053697    0.859922189288503    0.357264812765355  0.0000
  O1     O1        0.376615104200444    0.082828027700561    0.367177595080758  0.0000
  O1     O1        0.026636634621530    0.994332416397632    0.533373935052070  0.0000
  O3     O3        0.528306145152896    0.992719730152063    0.448486191580724  0.0000
  O1     O1        0.971688529063278    0.946740391790107    0.286833020350714  0.0000
  O1     O1        0.482832679732292    0.964172955917187    0.192780397411680  0.0000
  O1     O1        0.980326041469732    0.980600926499309    0.788181515326044  0.0000
  O3     O3        0.481836232112876    0.941490542432973    0.681281401846650  0.0000
  O1     O1        0.592981527788333    0.213109215577556    0.122374935315818  0.0000
  O3     O3        0.911432619457921    0.751788410564688    0.093326624823422  0.0000
  O1     O1        0.371420907825440    0.073809518495048    0.856311532353688  0.0000
  O1     O1        0.125818022975805    0.850626360490325    0.857004577775573  0.0000
  O1     O1        0.427804893534711    0.737479569128351    0.875929990170313  0.0000
  O3     O3        0.094918621921312    0.207634821265500    0.867065446516812  0.0000
  O1     O1        0.632335051896120    0.872867843010426    0.111076583300741  0.0000
  O3     O3        0.877685395605372    0.121355240283364    0.107031986860374  0.0000
  O1     O1        0.523298788627186    0.014643153172488    0.937344108874503  0.0000
  O1     O1        0.025463966136981    0.993431362398500    0.044341939938655  0.0000
  O1     O1        0.161046016600643    0.510079280451086    0.321506400479737  0.0000
  O1     O1        0.341667691079309    0.426194819075876    0.328510670927187  0.0000
  O1     O1        0.842597371653570    0.433595075052209    0.648133252408469  0.0000
  O1     O1        0.653409643361136    0.509027042479795    0.647749372764096  0.0000
  O1     O1        0.231795227263833    0.188428277218823    0.269531055644174  0.0000
  O1     O1        0.272243036807502    0.746321229671353    0.269878354547343  0.0000
  O1     O1        0.731001390343591    0.197356355013732    0.701802310059501  0.0000
  O1     O1        0.766916143289143    0.746362022597197    0.694919302328311  0.0000
  O3     O3        0.125598616036276    0.343441863843257    0.096520615584807  0.0000
  O1     O1        0.387202734181365    0.610116124118710    0.115738472115500  0.0000
  O3     O3        0.858296374918616    0.217141643544505    0.866722872221841  0.0000
  O1     O1        0.641097194885076    0.732202458493110    0.862019375928225  0.0000
  O3     O3        0.886401192956496    0.639069553942223    0.859200043979648  0.0000
  O1     O1        0.623180213140315    0.339119415274784    0.872979785818415  0.0000
  O1     O1        0.145733572630041    0.734660693174550    0.106165976345286  0.0000
  O1     O1        0.361402507208729    0.205158300283048    0.111303300291880  0.0000
  O1     O1        0.661139244628956    0.528174967193053    0.089362316805392  0.0000
  O2     O2        0.843863838695102    0.449961214568767    0.052288049387289  0.0000
  O1     O1        0.351060523585969    0.426699291123937    0.895245297024169  0.0000
  O3     O3        0.166556467638620    0.502445921727920    0.890605513258192  0.0000
  O3     O3        0.742358860672292    0.215978283490355    0.025660515234274  0.0000
  O3     O3        0.773968172795234    0.746673575181333    0.005273899874906  0.0000
  O3     O3        0.232986206858012    0.206016046517952    0.956033763551475  0.0000
  O1     O1        0.273909000285345    0.742976739744121    0.947494401286348  0.0000
