data_c00607.vasp
_audit_creation_method             Generated by GULP
_audit_author_name                 Salvador R. G. Balestra
_symmetry_space_group_name_H-M     'P 1             '
_symmetry_Int_Tables_number        1

loop_
_symmetry_equiv_pos_site_id
_symmetry_equiv_pos_as_xyz
_cell_length_a                       17.7325
_cell_length_b                        7.8609
_cell_length_c                       10.4835
_cell_angle_alpha                   90.3385
_cell_angle_beta                    90.1697
_cell_angle_gamma                   89.9605

loop_
_atom_site_label
_atom_site_type_symbol
_atom_site_fract_x
_atom_site_fract_y
_atom_site_fract_z
_atom_site_charge
  Ge     Ge        0.052090000000021    0.000000000000000    0.372269999999958  0.0000
  Ge     Ge        0.451373840942927    0.958707092293317    0.383060477692279  0.0000
  Ge     Ge        0.952222139735364    0.999779974707881    0.631871022346878  0.0000
  Ge     Ge        0.549724041493427    0.968063701654197    0.643740133168871  0.0000
  Ge     Ge        0.561364763134026    0.973241670671532    0.136452742377138  0.0000
  Ge     Ge        0.055488313662537    0.988965114808844    0.892587534162555  0.0000
  Ge     Ge        0.152378331198443    0.307721525898658    0.265224837752682  0.0000
  Ge     Ge        0.352449071736872    0.649515828662281    0.272367175584788  0.0000
  Ge     Ge        0.851512138901258    0.310280729795809    0.713001909625844  0.0000
  Ge     Ge        0.653325146622574    0.658783233062330    0.717926189371336  0.0000
  Ge     Ge        0.832068993923696    0.716793121720426    0.709265418387265  0.0000
  Ge     Ge        0.671923579826415    0.249937298446358    0.719242354033675  0.0000
  Ge     Ge        0.173261015890974    0.714251410878525    0.263821215844741  0.0000
  Ge     Ge        0.330284598471441    0.244678234074237    0.271908356527043  0.0000
  Ge     Ge        0.674541924701496    0.265722534836131    0.026937685962163  0.0000
  Ge     Ge        0.835657984881306    0.716656232424794    0.018433526451087  0.0000
  Ge     Ge        0.335897887440120    0.249951411033515    0.961483706455118  0.0000
  Ge     Ge        0.173813433932962    0.697399979557991    0.954949037896389  0.0000
  Ge     Ge        0.356194538513218    0.651219452102075    0.960575643755091  0.0000
  Ge     Ge        0.857119687629435    0.313046797489106    0.023960394495541  0.0000
  Si     Si        0.947474775214174    0.999879558142628    0.132281831736258  0.0000
  Si     Si        0.452418593577711    0.966491184136743    0.896526439945029  0.0000
  Si     Si        0.157942006347653    0.300540971001839    0.960010247367844  0.0000
  Si     Si        0.657392950432522    0.665155891373241    0.020815635619317  0.0000
  O1     O1        0.083871925089590    0.202529311751459    0.346339324387998  0.0000
  O1     O1        0.417483804970859    0.756579707672895    0.362357346067331  0.0000
  O1     O1        0.912104484547370    0.197385710292918    0.618198494807485  0.0000
  O1     O1        0.587827135156874    0.767987993858880    0.631392725630919  0.0000
  O1     O1        0.883199783631258    0.847395962219315    0.613472744230484  0.0000
  O1     O1        0.620155982301692    0.116142781530556    0.625002527004057  0.0000
  O1     O1        0.123300606894428    0.856293634985851    0.353246515013539  0.0000
  O1     O1        0.380193289866881    0.101974322594497    0.358807384727186  0.0000
  O1     O1        0.024564103151852    0.976313377225626    0.527944157050567  0.0000
  O1     O1        0.477793845250904    0.990769245818492    0.539467732022161  0.0000
  O3     O3        0.973331448149998    0.968746974483217    0.276920437933562  0.0000
  O1     O1        0.529728149608322    0.985503105145695    0.290268905528510  0.0000
  O1     O1        0.983789889741935    0.978137622239825    0.786807592140201  0.0000
  O3     O3        0.518905406241929    0.000290035666064    0.799405807884542  0.0000
  O1     O1        0.625397359979831    0.135001273741968    0.125301080685241  0.0000
  O3     O3        0.877141022764319    0.876461662136807    0.105530488651477  0.0000
  O3     O3        0.383515280418077    0.098188917055152    0.875079015883782  0.0000
  O1     O1        0.120615639827029    0.830613506545701    0.863657606417889  0.0000
  O3     O3        0.419571847058119    0.776841759517357    0.878664244135693  0.0000
  O3     O3        0.100573080218187    0.184434462226849    0.880539047154504  0.0000
  O3     O3        0.602109796874906    0.777062513599757    0.107246318444752  0.0000
  O3     O3        0.921266483297262    0.193629470385601    0.109563579961915  0.0000
  O3     O3        0.483021123739507    0.997494367014278    0.039906214626636  0.0000
  O3     O3        0.019169735960102    0.957691022572838    0.044051412155160  0.0000
  O1     O1        0.160982552111249    0.510733742002702    0.321415864940488  0.0000
  O1     O1        0.340546704381821    0.449067627427694    0.330709431355819  0.0000
  O1     O1        0.840016847397447    0.510099973037945    0.654553219224594  0.0000
  O1     O1        0.661636580410334    0.455347517694703    0.664070220417835  0.0000
  O1     O1        0.235900675491231    0.197763080573047    0.277614877124649  0.0000
  O1     O1        0.267929212661060    0.757812050573951    0.270799797858912  0.0000
  O1     O1        0.766371058823525    0.204021189417449    0.717504208355023  0.0000
  O1     O1        0.737812568900341    0.765740871724764    0.708397949518986  0.0000
  O3     O3        0.129021396271239    0.317491891294910    0.104755371720660  0.0000
  O1     O1        0.383723208801590    0.641140773824290    0.117182345246240  0.0000
  O1     O1        0.885064508961316    0.319023302314176    0.867510004492656  0.0000
  O3     O3        0.625802065524291    0.655226266315730    0.877084552887630  0.0000
  O1     O1        0.865741694641119    0.724541034120223    0.863734628175375  0.0000
  O1     O1        0.641501198934894    0.238746470684774    0.874819573343149  0.0000
  O1     O1        0.142933052645191    0.722142160332963    0.108887032424532  0.0000
  O1     O1        0.363046493349725    0.245479694822069    0.118229198526188  0.0000
  O3     O3        0.664029364581102    0.476234787113861    0.076334525943818  0.0000
  O1     O1        0.855208773644752    0.519345513685035    0.080081218878548  0.0000
  O1     O1        0.353983682028146    0.448289824843304    0.899927996423959  0.0000
  O3     O3        0.163857639739765    0.488200908741940    0.901720414096664  0.0000
  O1     O1        0.769229286967062    0.223081201710859    0.032450025771337  0.0000
  O3     O3        0.739460862576466    0.752571849591025    0.017874354009306  0.0000
  O3     O3        0.239844610636454    0.211127600098819    0.958890911797023  0.0000
  O1     O1        0.268189304872577    0.742484848255305    0.950601800297937  0.0000
