data_c00634.vasp
_audit_creation_method             Generated by GULP
_audit_author_name                 Salvador R. G. Balestra
_symmetry_space_group_name_H-M     'P 1             '
_symmetry_Int_Tables_number        1

loop_
_symmetry_equiv_pos_site_id
_symmetry_equiv_pos_as_xyz
_cell_length_a                       17.6997
_cell_length_b                        7.8253
_cell_length_c                       10.0665
_cell_angle_alpha                   87.5335
_cell_angle_beta                    89.9028
_cell_angle_gamma                   88.7068

loop_
_atom_site_label
_atom_site_type_symbol
_atom_site_fract_x
_atom_site_fract_y
_atom_site_fract_z
_atom_site_charge
  Ge     Ge        0.052090000000021    0.000000000000000    0.372269999999958  0.0000
  Ge     Ge        0.449484211592833    0.967546710429445    0.384917181218165  0.0000
  Ge     Ge        0.948428600854428    0.985753717593877    0.628499653483707  0.0000
  Ge     Ge        0.556889844050624    0.051430972110840    0.632538096802210  0.0000
  Ge     Ge        0.559260646150737    0.998805041105931    0.131362028836793  0.0000
  Ge     Ge        0.068030442193295    0.027215526393938    0.858115576219375  0.0000
  Ge     Ge        0.153123618957372    0.320043710590407    0.309073482960506  0.0000
  Ge     Ge        0.357715445652010    0.648810140438730    0.313253670055739  0.0000
  Ge     Ge        0.836908501385848    0.286970634137695    0.725265467533358  0.0000
  Ge     Ge        0.681654813089208    0.759185063879654    0.746806542857414  0.0000
  Ge     Ge        0.652589255292364    0.357331416953607    0.734912087189389  0.0000
  Ge     Ge        0.176364095457203    0.722582582719721    0.299965439661246  0.0000
  Ge     Ge        0.663558304102090    0.309275456004057    0.055376848783898  0.0000
  Ge     Ge        0.858658014583263    0.636973756501991    0.069471741126435  0.0000
  Ge     Ge        0.339594985888254    0.254102545993838    0.999844921805734  0.0000
  Ge     Ge        0.185882612083883    0.734736660481301    0.978719230265465  0.0000
  Ge     Ge        0.367321052753276    0.657661616989579    0.994342876448408  0.0000
  Ge     Ge        0.160584078983362    0.330425986850956    0.982308038256783  0.0000
  Ge     Ge        0.685196122915774    0.713924301871312    0.079338059474035  0.0000
  Ge     Ge        0.845458681572348    0.238448521462875    0.042630526424599  0.0000
  Si     Si        0.963137606972913    0.942666990853497    0.105869032790153  0.0000
  Si     Si        0.457499927814033    0.970423299350052    0.882113026742198  0.0000
  Si     Si        0.852836060326607    0.674691516074211    0.744130392333014  0.0000
  Si     Si        0.329734286545136    0.255873638162105    0.319048053990359  0.0000
  O1     O1        0.086128744244318    0.201746284017171    0.390792093074824  0.0000
  O1     O1        0.414525538703601    0.765929398402420    0.411866157998012  0.0000
  O1     O1        0.881058414128397    0.144510464006882    0.623459823393966  0.0000
  O1     O1        0.635415663999117    0.927688218143826    0.669970930356700  0.0000
  O3     O3        0.922344782240967    0.792150808483632    0.704695517410744  0.0000
  O1     O1        0.585900830942232    0.257419437061840    0.643733920431534  0.0000
  O1     O1        0.127661329063504    0.860683726145608    0.396559897667135  0.0000
  O3     O3        0.377120288112100    0.117061227231178    0.407527949369464  0.0000
  O1     O1        0.974743934919918    0.955037462886486    0.465502724446320  0.0000
  O1     O1        0.527676748409303    0.011406072965854    0.474553790075807  0.0000
  O3     O3        0.029837731774146    0.977816646550821    0.204993739803544  0.0000
  O1     O1        0.478786174207499    0.979529229570220    0.220921811497195  0.0000
  O1     O1        0.032618790412105    0.037529706168100    0.699790409533050  0.0000
  O3     O3        0.477878410923044    0.003595687985145    0.728054770186435  0.0000
  O1     O1        0.604449608407082    0.187443063936340    0.152045553377320  0.0000
  O3     O3        0.934783120791071    0.747098816744820    0.122877695250293  0.0000
  O3     O3        0.389260316542254    0.095216464096822    0.924603500686851  0.0000
  O1     O1        0.143439755283797    0.887208345369532    0.875196109443523  0.0000
  O3     O3        0.433313226938691    0.774269826267964    0.904267647742537  0.0000
  O1     O1        0.094753178767133    0.229500645474676    0.892676716987652  0.0000
  O1     O1        0.623787199728594    0.835797568375950    0.167693012264071  0.0000
  O3     O3        0.892853094467210    0.072673594957845    0.128131033535672  0.0000
  O3     O3        0.533124919420163    0.002753899208118    0.964044065858855  0.0000
  O3     O3        0.992261136244164    0.963151159767394    0.955327343411183  0.0000
  O1     O1        0.158877400694850    0.519947052738809    0.366526373905996  0.0000
  O3     O3        0.343246842890471    0.443020361220194    0.375931641826048  0.0000
  O3     O3        0.855451030284599    0.496482519834491    0.669882222945229  0.0000
  O1     O1        0.655341616817619    0.568697459647121    0.683809323114915  0.0000
  O3     O3        0.241414692715378    0.215919088661113    0.321669846375042  0.0000
  O1     O1        0.271751163427305    0.754641610481506    0.300953471763331  0.0000
  O1     O1        0.741207811183816    0.262783676871432    0.722477846174414  0.0000
  O3     O3        0.777040908155554    0.785333867142034    0.711368807557449  0.0000
  O1     O1        0.130210763470218    0.337993369376177    0.143529960129416  0.0000
  O1     O1        0.396549104934024    0.642362525370714    0.157069582815562  0.0000
  O1     O1        0.874880379309382    0.237548189307639    0.879467967148689  0.0000
  O1     O1        0.665077639474761    0.757364188704876    0.914156835943714  0.0000
  O3     O3        0.848299581477098    0.612500720871690    0.899096741243948  0.0000
  O1     O1        0.626276728223058    0.344417388531997    0.899124858668993  0.0000
  O1     O1        0.148495076947222    0.743087196770229    0.135723744801729  0.0000
  O3     O3        0.359970992491145    0.257204713406113    0.167689376387028  0.0000
  O1     O1        0.675169485279907    0.501355736490154    0.124837615911720  0.0000
  O1     O1        0.864195694481619    0.425490317692618    0.121037240480029  0.0000
  O1     O1        0.361323538929195    0.455087953770530    0.935875070733861  0.0000
  O1     O1        0.172465196891934    0.534360415792614    0.919250640796286  0.0000
  O1     O1        0.750061055062343    0.204575263302238    0.042765779624793  0.0000
  O1     O1        0.778532451888129    0.747381673253142    0.114183330517769  0.0000
  O1     O1        0.245692023787778    0.218511436867771    0.978780324441937  0.0000
  O1     O1        0.281495548172577    0.763175890097132    0.985236685758237  0.0000
