data_c00663.vasp
_audit_creation_method             Generated by GULP
_audit_author_name                 Salvador R. G. Balestra
_symmetry_space_group_name_H-M     'P 1             '
_symmetry_Int_Tables_number        1

loop_
_symmetry_equiv_pos_site_id
_symmetry_equiv_pos_as_xyz
_cell_length_a                       17.6053
_cell_length_b                        7.7980
_cell_length_c                       10.3345
_cell_angle_alpha                   89.8298
_cell_angle_beta                    90.0896
_cell_angle_gamma                   91.1649

loop_
_atom_site_label
_atom_site_type_symbol
_atom_site_fract_x
_atom_site_fract_y
_atom_site_fract_z
_atom_site_charge
  Ge     Ge        0.052090000000021    0.000000000000000    0.372269999999958  0.0000
  Ge     Ge        0.450165316505584    0.048898388269291    0.356323208193622  0.0000
  Ge     Ge        0.949037799322646    0.046162750188073    0.628402355188984  0.0000
  Ge     Ge        0.554489737181598    0.978537040930155    0.100735858442687  0.0000
  Ge     Ge        0.947566361089414    0.040599783640070    0.123807377654536  0.0000
  Ge     Ge        0.446584525731816    0.038959031576449    0.851136632094208  0.0000
  Ge     Ge        0.056588285594803    0.983655020371326    0.879699507130337  0.0000
  Ge     Ge        0.175606122407262    0.283580057661342    0.267800058952217  0.0000
  Ge     Ge        0.326677530808881    0.771870565762259    0.263507180271212  0.0000
  Ge     Ge        0.847700095367877    0.359083636418569    0.692982181326889  0.0000
  Ge     Ge        0.642617714173876    0.684330923229277    0.718736608273258  0.0000
  Ge     Ge        0.824202747490558    0.763276731256358    0.706113533821020  0.0000
  Ge     Ge        0.668481911552623    0.279587446238047    0.706962378936536  0.0000
  Ge     Ge        0.147246486504915    0.686885798015894    0.254195153659446  0.0000
  Ge     Ge        0.355966359885660    0.361993604682451    0.273139854360682  0.0000
  Ge     Ge        0.678389263406612    0.262876267652931    0.022931721440700  0.0000
  Ge     Ge        0.830463849455129    0.744228564219229    0.017654885505879  0.0000
  Ge     Ge        0.156766919539729    0.669863764761424    0.937950841784215  0.0000
  Ge     Ge        0.179079624820482    0.272464981482381    0.955372817575791  0.0000
  Ge     Ge        0.649986999525672    0.662343127106835    0.032379164524982  0.0000
  Si     Si        0.548653857710758    0.994205703214942    0.607055982506106  0.0000
  Si     Si        0.357233548223083    0.349711683926821    0.970310065664194  0.0000
  Si     Si        0.333169857747391    0.748088808472038    0.958487575530473  0.0000
  Si     Si        0.853758031462450    0.346852730238301    0.003523920759151  0.0000
  O1     O1        0.128398456054450    0.138101786172249    0.363330496675809  0.0000
  O1     O1        0.373290845655139    0.909857478107031    0.364606029783573  0.0000
  O1     O1        0.915432932616224    0.250658473630060    0.610018659161071  0.0000
  O3     O3        0.573987883269409    0.803343655407784    0.642286102744230  0.0000
  O1     O1        0.872746097822829    0.906973377553957    0.610910926644534  0.0000
  O3     O3        0.618192548727206    0.128174507162262    0.619691994040211  0.0000
  O1     O1        0.076773038542825    0.795893203256041    0.329666650003293  0.0000
  O1     O1        0.419256097281007    0.255024634029774    0.369196867363720  0.0000
  O1     O1        0.023172993689492    0.998924792356834    0.531644006761863  0.0000
  O3     O3        0.522917763430311    0.997132806779901    0.457563990291387  0.0000
  O1     O1        0.975990272635511    0.064983178971858    0.281872806308969  0.0000
  O1     O1        0.482312919251799    0.025916038918836    0.199559326856051  0.0000
  O1     O1        0.981024644277790    0.030923757325599    0.786422516634030  0.0000
  O3     O3        0.476136347024672    0.047979736389215    0.691183994126289  0.0000
  O1     O1        0.633241180890086    0.113697242418350    0.115970217501765  0.0000
  O1     O1        0.878056592811020    0.883629046631847    0.117367592025520  0.0000
  O3     O3        0.413128227456522    0.243267181321900    0.881037152716871  0.0000
  O1     O1        0.094119888451947    0.785190169951250    0.849029459335217  0.0000
  O3     O3        0.378745757235264    0.875519309533000    0.864219328633946  0.0000
  O1     O1        0.133263615415564    0.123518564451645    0.863123583223546  0.0000
  O1     O1        0.586807508527172    0.774091044018776    0.123224275001819  0.0000
  O3     O3        0.919468714704664    0.240949495998402    0.071025235400315  0.0000
  O1     O1        0.524243054306965    0.997956980188203    0.942088229436869  0.0000
  O1     O1        0.026124383394357    0.982762513064581    0.038301994061105  0.0000
  O1     O1        0.159810439481550    0.488597298665917    0.322166508354307  0.0000
  O1     O1        0.343575671248344    0.567179450175501    0.320368321038330  0.0000
  O1     O1        0.837115735677375    0.563144448326436    0.638735692517305  0.0000
  O1     O1        0.651723467236938    0.484359260076733    0.651507508517927  0.0000
  O1     O1        0.271243876521729    0.248801649111202    0.275142339676703  0.0000
  O1     O1        0.231207293137485    0.805628252694881    0.264561096715682  0.0000
  O1     O1        0.763588313460704    0.243592030377715    0.687422794213645  0.0000
  O1     O1        0.728222047362206    0.795478554219710    0.712178473841801  0.0000
  O1     O1        0.144089596290412    0.260951747472895    0.110643874624858  0.0000
  O3     O3        0.360341142699053    0.785209580537987    0.104835024773592  0.0000
  O3     O3        0.873624924885421    0.380905200539396    0.854358083005765  0.0000
  O1     O1        0.616714073712068    0.649360907207536    0.875636922152185  0.0000
  O1     O1        0.860543379907424    0.777059336536989    0.861249972362725  0.0000
  O1     O1        0.644151317080985    0.260265089326680    0.866843710122388  0.0000
  O1     O1        0.125481292410282    0.652572644978647    0.095182636665405  0.0000
  O3     O3        0.389962199441481    0.356481578982274    0.114784309389028  0.0000
  O1     O1        0.662033000044792    0.460787207404252    0.090765720805964  0.0000
  O3     O3        0.844386217353408    0.532817475203182    0.067485155231985  0.0000
  O2     O2        0.346624929622699    0.546998266455763    0.922845874189860  0.0000
  O1     O1        0.163312821538721    0.466923995218239    0.881111189373682  0.0000
  O3     O3        0.775754567274648    0.234675926119978    0.015463525793614  0.0000
  O1     O1        0.734888062920520    0.776519018972504    0.025071568691823  0.0000
  O3     O3        0.276338728196617    0.250085462882446    0.968482967299436  0.0000
  O3     O3        0.244017912504222    0.779152130928706    0.944881497051484  0.0000
