data_c00642.vasp
_audit_creation_method             Generated by GULP
_audit_author_name                 Salvador R. G. Balestra
_symmetry_space_group_name_H-M     'P 1             '
_symmetry_Int_Tables_number        1

loop_
_symmetry_equiv_pos_site_id
_symmetry_equiv_pos_as_xyz
_cell_length_a                       17.6073
_cell_length_b                        7.8990
_cell_length_c                       10.4965
_cell_angle_alpha                   90.1350
_cell_angle_beta                    90.2477
_cell_angle_gamma                   89.8100

loop_
_atom_site_label
_atom_site_type_symbol
_atom_site_fract_x
_atom_site_fract_y
_atom_site_fract_z
_atom_site_charge
  Ge     Ge        0.052090000000021    0.000000000000000    0.372269999999958  0.0000
  Ge     Ge        0.448754477813931    0.030025177073867    0.373520760548715  0.0000
  Ge     Ge        0.949855976247686    0.008789464697563    0.630401476833746  0.0000
  Ge     Ge        0.546452532904593    0.032634369946591    0.636655645893966  0.0000
  Ge     Ge        0.556035319936661    0.028965218315993    0.127381121119630  0.0000
  Ge     Ge        0.171846738211441    0.284280964338145    0.264266673767419  0.0000
  Ge     Ge        0.328214254828401    0.746237137514561    0.263494494374273  0.0000
  Ge     Ge        0.829898516256272    0.293509591555195    0.710938721915263  0.0000
  Ge     Ge        0.669127896952341    0.748928504469593    0.712622770589524  0.0000
  Ge     Ge        0.850271640114525    0.697944728528120    0.710756696360229  0.0000
  Ge     Ge        0.647653942686637    0.344395290825152    0.714266131498895  0.0000
  Ge     Ge        0.146918294431836    0.685261951026417    0.266451943884770  0.0000
  Ge     Ge        0.352992280018519    0.345193421778420    0.261973024864809  0.0000
  Ge     Ge        0.648975731729205    0.349082381842245    0.021864363998841  0.0000
  Ge     Ge        0.851035525515898    0.701602497174618    0.020192282678632  0.0000
  Ge     Ge        0.348493203995053    0.340889153173806    0.951670990198723  0.0000
  Ge     Ge        0.146384124320897    0.697156692332564    0.956702036492318  0.0000
  Ge     Ge        0.330768073873280    0.742140976488008    0.954317690254776  0.0000
  Ge     Ge        0.164408513522107    0.295355406630708    0.955159441898128  0.0000
  Ge     Ge        0.833990573494548    0.300671318059135    0.019611136204726  0.0000
  Si     Si        0.944715484676397    0.011646442056242    0.128611536753021  0.0000
  Si     Si        0.446236447837597    0.026820009393291    0.886886891755274  0.0000
  Si     Si        0.047809688443033    0.010609126240822    0.886227894689166  0.0000
  Si     Si        0.669557556859315    0.743995064569488    0.014676789034660  0.0000
  O1     O1        0.126467199236447    0.135426355700903    0.352109272647193  0.0000
  O1     O1        0.374686624461223    0.893390826710647    0.352628431970207  0.0000
  O1     O1        0.878905504197380    0.157375729948869    0.615160299084809  0.0000
  O1     O1        0.617233315412547    0.883486869181728    0.620657092969055  0.0000
  O1     O1        0.911947297180660    0.810279147097858    0.617801473369860  0.0000
  O1     O1        0.585647439454731    0.229681123473398    0.622294386573623  0.0000
  O1     O1        0.082894309124614    0.795768554760071    0.356698215999649  0.0000
  O1     O1        0.419752415593101    0.234265167072830    0.345820381572753  0.0000
  O1     O1        0.020799104209582    0.036238098622427    0.524373505201492  0.0000
  O1     O1        0.474978224476916    0.006988839767352    0.530416452338369  0.0000
  O3     O3        0.977250451415962    0.038413024290662    0.269193591839605  0.0000
  O1     O1        0.525747328086859    0.987419868675526    0.278805464406794  0.0000
  O3     O3        0.982085270842874    0.038696455561665    0.785586298146316  0.0000
  O3     O3        0.514659522152785    0.000211957853202    0.791174685194322  0.0000
  O1     O1        0.590790218652358    0.231447354416088    0.116744111421273  0.0000
  O3     O3        0.908818488084080    0.825950333780270    0.113777905343027  0.0000
  O3     O3        0.409278102270508    0.211992881760944    0.865995152159019  0.0000
  O3     O3        0.084687458023105    0.824984061866949    0.871275271591215  0.0000
  O3     O3        0.380824251957238    0.886954901083349    0.865775667975749  0.0000
  O3     O3        0.113449002024566    0.149548738559970    0.867998882981381  0.0000
  O3     O3        0.627916361091290    0.886294781326370    0.096544847130813  0.0000
  O3     O3        0.879565835695667    0.150251971236045    0.109644720691049  0.0000
  O3     O3        0.476861465156396    0.006600034982967    0.031061750405865  0.0000
  O2     O2        0.013974910733545    0.034435917937299    0.029003306999978  0.0000
  O1     O1        0.158159674918225    0.485414740377102    0.325432570040691  0.0000
  O1     O1        0.342483859597733    0.544833197978986    0.322920728077376  0.0000
  O1     O1        0.840358158390796    0.497112033924954    0.654237111431548  0.0000
  O1     O1        0.656722198967781    0.544939509517050    0.657357631375774  0.0000
  O1     O1        0.267188307386236    0.240902856498576    0.264249796218179  0.0000
  O1     O1        0.232859970084381    0.788776002535627    0.264954673901586  0.0000
  O1     O1        0.735179749479128    0.245554165982714    0.713960809483877  0.0000
  O1     O1        0.763282606611691    0.799224054000977    0.707547746845173  0.0000
  O1     O1        0.137120502367016    0.289429678324333    0.111497120976525  0.0000
  O1     O1        0.361045194527112    0.746291545006908    0.109756700473637  0.0000
  O1     O1        0.863935381918684    0.292379524392823    0.864992098066913  0.0000
  O3     O3        0.639216782773181    0.747969277607806    0.870182237670379  0.0000
  O1     O1        0.882817587879611    0.699258376231929    0.866105201371693  0.0000
  O1     O1        0.614907367026476    0.341458320277940    0.868756658413778  0.0000
  O1     O1        0.115665354636278    0.681676853813340    0.110969364972562  0.0000
  O1     O1        0.380919222037844    0.356115579561870    0.105527253837183  0.0000
  O3     O3        0.653764216416736    0.558207602154039    0.072466641364744  0.0000
  O1     O1        0.852043561853777    0.500109995184026    0.079205906524945  0.0000
  O1     O1        0.344026575257183    0.542068358832001    0.891324482506949  0.0000
  O1     O1        0.149791820331013    0.496008775163852    0.894956816554941  0.0000
  O1     O1        0.738531557815641    0.263475136898871    0.024690131647936  0.0000
  O3     O3        0.759226850911685    0.779952083007268    0.015486723475767  0.0000
  O1     O1        0.259708247269087    0.251081433766511    0.949473921324428  0.0000
  O1     O1        0.235281523679196    0.786281139498714    0.952734274007774  0.0000
