data_c00667.vasp
_audit_creation_method             Generated by GULP
_audit_author_name                 Salvador R. G. Balestra
_symmetry_space_group_name_H-M     'P 1             '
_symmetry_Int_Tables_number        1

loop_
_symmetry_equiv_pos_site_id
_symmetry_equiv_pos_as_xyz
_cell_length_a                       17.5432
_cell_length_b                        7.8636
_cell_length_c                       10.2269
_cell_angle_alpha                   90.1455
_cell_angle_beta                    90.1431
_cell_angle_gamma                   87.7300

loop_
_atom_site_label
_atom_site_type_symbol
_atom_site_fract_x
_atom_site_fract_y
_atom_site_fract_z
_atom_site_charge
  Ge     Ge        0.052090000000021    0.000000000000000    0.372269999999958  0.0000
  Ge     Ge        0.450609134007923    0.937156995645623    0.336465306919871  0.0000
  Ge     Ge        0.948112568761723    0.940369920259466    0.623030224875353  0.0000
  Ge     Ge        0.550474300826068    0.997355025457130    0.073893236458321  0.0000
  Ge     Ge        0.942615034126570    0.942037092645541    0.127836400650335  0.0000
  Ge     Ge        0.440347364740508    0.948653485958326    0.822856003159545  0.0000
  Ge     Ge        0.051996943587007    0.993776120087196    0.880175496281142  0.0000
  Ge     Ge        0.145223924713508    0.307024732768783    0.255938191553793  0.0000
  Ge     Ge        0.355769566678133    0.628706999823309    0.254794375947103  0.0000
  Ge     Ge        0.823204490757500    0.231401428322177    0.689991785547569  0.0000
  Ge     Ge        0.666252293745439    0.707998353254434    0.698964472198000  0.0000
  Ge     Ge        0.847478379532036    0.631870315336853    0.687751527438591  0.0000
  Ge     Ge        0.639019333869698    0.308572692066759    0.694160325716366  0.0000
  Ge     Ge        0.174153061618713    0.707474793355322    0.250908850546332  0.0000
  Ge     Ge        0.327303418830836    0.225599268300546    0.253892426342683  0.0000
  Ge     Ge        0.641364584518201    0.318677904267374    0.007528999122730  0.0000
  Ge     Ge        0.850439706510385    0.629769984757812    0.009406202826798  0.0000
  Ge     Ge        0.352330534918732    0.629845062249295    0.939748812233686  0.0000
  Ge     Ge        0.147152452937035    0.311985078674366    0.941372451119378  0.0000
  Ge     Ge        0.824715163566238    0.231767803412477    0.005196105205811  0.0000
  Si     Si        0.547488452729818    0.003422547003058    0.585361094104923  0.0000
  Si     Si        0.328311778740306    0.236653406582451    0.945626638748454  0.0000
  Si     Si        0.170970915589891    0.699292802383151    0.941012589333563  0.0000
  Si     Si        0.671453545570758    0.704368217436058    0.012945656793391  0.0000
  O1     O1        0.079250114846513    0.204079103208211    0.346594240919019  0.0000
  O1     O1        0.417318204690434    0.736681307763832    0.352625034827912  0.0000
  O1     O1        0.874400240130425    0.087594104481444    0.596585794076788  0.0000
  O3     O3        0.615251372440592    0.872027806234835    0.626686221084773  0.0000
  O1     O1        0.912551360741464    0.741961097797787    0.600767611633677  0.0000
  O3     O3        0.574019552083900    0.194247118195046    0.605312410859009  0.0000
  O1     O1        0.127567836218989    0.862703059229679    0.338454395967185  0.0000
  O1     O1        0.376593905577491    0.085566336026750    0.352295119277062  0.0000
  O1     O1        0.027316938085063    0.977967289303049    0.534076429168770  0.0000
  O3     O3        0.528139296502012    0.975826705333769    0.433068425124606  0.0000
  O1     O1        0.970900313457657    0.950959726229128    0.288318640681059  0.0000
  O1     O1        0.478374880052031    0.953773527659647    0.175137501165746  0.0000
  O1     O1        0.975730478123479    0.953011679382223    0.785666250776228  0.0000
  O3     O3        0.469428033311229    0.967579284422667    0.661719661418052  0.0000
  O1     O1        0.583299104509403    0.198169429478638    0.100651049092327  0.0000
  O1     O1        0.916911762298353    0.737622384931849    0.093856895033899  0.0000
  O3     O3        0.365025776553127    0.090410471346489    0.854449264345407  0.0000
  O3     O3        0.126021767425188    0.842264589588711    0.858377015651415  0.0000
  O1     O1        0.409586182312994    0.744879552813567    0.842090495123102  0.0000
  O1     O1        0.090449157518668    0.188462284615909    0.848344605525975  0.0000
  O3     O3        0.626318424157164    0.849117073414194    0.093237067952670  0.0000
  O1     O1        0.864837456335586    0.075768804330197    0.101251922749670  0.0000
  O1     O1        0.518783503453493    0.987180849096016    0.914692396399797  0.0000
  O1     O1        0.020607903633338    0.998331040605103    0.039518512842026  0.0000
  O1     O1        0.157680936100556    0.508992772279186    0.313594359382678  0.0000
  O1     O1        0.343633592010440    0.428440815507258    0.310053753567356  0.0000
  O1     O1        0.836810329062656    0.432110651175766    0.627925598850526  0.0000
  O1     O1        0.647129490393490    0.511640853062785    0.634041659944570  0.0000
  O1     O1        0.231739038938485    0.194047251722137    0.260479684050345  0.0000
  O1     O1        0.269420123076249    0.741877777694341    0.253696146067687  0.0000
  O1     O1        0.726849730062531    0.202860238846332    0.689335604640571  0.0000
  O1     O1        0.760948051480521    0.744757462025280    0.682891576869026  0.0000
  O1     O1        0.112520105773710    0.317140730067212    0.097810673653630  0.0000
  O1     O1        0.388013523391573    0.628682415980533    0.095423513551722  0.0000
  O1     O1        0.858376512563646    0.217103182036695    0.847423906699883  0.0000
  O3     O3        0.643094728594908    0.698637759359360    0.862861560394246  0.0000
  O1     O1        0.876272476626190    0.616373912569497    0.848331326581257  0.0000
  O1     O1        0.605618592646628    0.326041927563803    0.850886786874701  0.0000
  O3     O3        0.141419316320307    0.707030040339625    0.090462771279976  0.0000
  O3     O3        0.360550212504354    0.216991982211161    0.093059863574160  0.0000
  O3     O3        0.653769244079901    0.518749671270196    0.072326784570879  0.0000
  O1     O1        0.845164046715642    0.427821775357724    0.069272738795068  0.0000
  O3     O3        0.348022915550583    0.420493487862213    0.887893631673774  0.0000
  O3     O3        0.152581221697229    0.515188199410107    0.880232960410576  0.0000
  O1     O1        0.728407857595535    0.212197120487513    0.995996961088525  0.0000
  O3     O3        0.761203162854984    0.734285328275567    0.018095424801380  0.0000
  O3     O3        0.237970625155245    0.218968446720750    0.952788249112806  0.0000
  O3     O3        0.261177117223174    0.723230764346289    0.939975898611158  0.0000
