data_c00638.vasp
_audit_creation_method             Generated by GULP
_audit_author_name                 Salvador R. G. Balestra
_symmetry_space_group_name_H-M     'P 1             '
_symmetry_Int_Tables_number        1

loop_
_symmetry_equiv_pos_site_id
_symmetry_equiv_pos_as_xyz
_cell_length_a                       17.5770
_cell_length_b                        7.8581
_cell_length_c                       10.2443
_cell_angle_alpha                   88.7983
_cell_angle_beta                    89.7912
_cell_angle_gamma                   91.5328

loop_
_atom_site_label
_atom_site_type_symbol
_atom_site_fract_x
_atom_site_fract_y
_atom_site_fract_z
_atom_site_charge
  Ge     Ge        0.052090000000021    0.000000000000000    0.372269999999958  0.0000
  Ge     Ge        0.449274309611577    0.055491150522784    0.389221944970420  0.0000
  Ge     Ge        0.946880439606593    0.067542680533001    0.627187976016435  0.0000
  Ge     Ge        0.555486508083296    0.021366979936292    0.644146109631790  0.0000
  Ge     Ge        0.558885018489435    0.012828582503881    0.140074647708327  0.0000
  Ge     Ge        0.055280200582866    0.020671808241024    0.879817700731191  0.0000
  Ge     Ge        0.176125434663195    0.290807276373894    0.264063753695615  0.0000
  Ge     Ge        0.328671555997802    0.771804767737961    0.276034391097058  0.0000
  Ge     Ge        0.856173948058526    0.388137926006348    0.697753556559261  0.0000
  Ge     Ge        0.672366404248852    0.318183436326055    0.709152159395473  0.0000
  Ge     Ge        0.147427303046797    0.690830210091494    0.264147515446056  0.0000
  Ge     Ge        0.357302731586517    0.372448300287739    0.270766518433287  0.0000
  Ge     Ge        0.678460105314290    0.303759860162140    0.024448245840393  0.0000
  Ge     Ge        0.835153177096456    0.781309905773011    0.013616319091815  0.0000
  Ge     Ge        0.360488299367329    0.385671419998072    0.952559655491889  0.0000
  Ge     Ge        0.156486620973244    0.708282638193813    0.946377647604687  0.0000
  Ge     Ge        0.338087853118801    0.786430740992279    0.959748745162342  0.0000
  Ge     Ge        0.179251020755116    0.307892886157003    0.946775945232727  0.0000
  Ge     Ge        0.654250028511460    0.707218450441666    0.020443464001126  0.0000
  Ge     Ge        0.861812160708028    0.377832625485814    0.012639669528290  0.0000
  Si     Si        0.952306825273807    0.068361614021666    0.125950858610467  0.0000
  Si     Si        0.456797965143277    0.079093111878687    0.894852059162988  0.0000
  Si     Si        0.654424990404751    0.709247597381836    0.709370038067668  0.0000
  Si     Si        0.830778660194332    0.777363554449648    0.702896690353800  0.0000
  O1     O1        0.129036300842893    0.135732496827586    0.353769623695202  0.0000
  O1     O1        0.372683171833452    0.919551348488634    0.371650108434053  0.0000
  O1     O1        0.913570644535719    0.268812752017106    0.601444389693236  0.0000
  O3     O3        0.598954427571869    0.827318885741537    0.627338079457200  0.0000
  O3     O3        0.870211773916129    0.923337420288100    0.614425841445745  0.0000
  O1     O1        0.621998231592646    0.181030959380498    0.613017959037959  0.0000
  O1     O1        0.078786423849977    0.795527248621727    0.347727425419039  0.0000
  O1     O1        0.423884146168326    0.261064210412382    0.355684917331326  0.0000
  O1     O1        0.020975554144878    0.016592997301915    0.531071117920191  0.0000
  O1     O1        0.477349240234547    0.037997760643736    0.549979914762849  0.0000
  O3     O3        0.974859063465652    0.054682658507486    0.277294180060015  0.0000
  O1     O1        0.527218377488335    0.003816157637930    0.298258257801372  0.0000
  O1     O1        0.978375924034885    0.058263810522905    0.786581324176098  0.0000
  O3     O3        0.528593905570232    0.040043215747419    0.806807255148159  0.0000
  O1     O1        0.634461585253040    0.154044083595026    0.124082216249446  0.0000
  O3     O3        0.882487257746075    0.938833601986892    0.096026236088321  0.0000
  O3     O3        0.424961474225799    0.266909646769841    0.866790804435587  0.0000
  O1     O1        0.093496293851978    0.824297996711315    0.856968342531375  0.0000
  O3     O3        0.389607975718635    0.939299522605570    0.871867494755441  0.0000
  O1     O1        0.127434527296606    0.169975108321102    0.853880352585171  0.0000
  O1     O1        0.585549288567399    0.811238706421842    0.101355291622025  0.0000
  O3     O3        0.928227082558431    0.261558468591379    0.097362709246199  0.0000
  O3     O3        0.482146200921592    0.073886195263195    0.046296697872333  0.0000
  O3     O3        0.026203377138689    0.021748321426173    0.042929534590695  0.0000
  O1     O1        0.158543918354187    0.488809221645883    0.325937257941777  0.0000
  O1     O1        0.343641145489164    0.568738482023753    0.335923412926673  0.0000
  O3     O3        0.849502949063579    0.595907827800393    0.641305643854474  0.0000
  O3     O3        0.656811328881577    0.523828568942333    0.649780322235230  0.0000
  O1     O1        0.272235021771869    0.258334836217991    0.269980398949307  0.0000
  O1     O1        0.232702529845028    0.803839249329659    0.272256601557715  0.0000
  O1     O1        0.768148924003347    0.287872600554669    0.702676896302354  0.0000
  O2     O2        0.739456419544012    0.796765337977583    0.711064061834128  0.0000
  O1     O1        0.146368793290737    0.287618330318256    0.104846193604920  0.0000
  O1     O1        0.365613717384511    0.790864255492924    0.120341590050689  0.0000
  O1     O1        0.891785661267701    0.392132439186698    0.853335332510196  0.0000
  O3     O3        0.627057024003671    0.690851524585187    0.858656596633517  0.0000
  O3     O3        0.862108730830599    0.785553076597833    0.850373502542054  0.0000
  O1     O1        0.643438967174824    0.289302481340533    0.868656604288979  0.0000
  O1     O1        0.122767341107342    0.677143015575095    0.103060076358694  0.0000
  O1     O1        0.387048640349518    0.406370228145909    0.112466450994357  0.0000
  O1     O1        0.663404048025170    0.504910486389550    0.081763968364428  0.0000
  O1     O1        0.855156926201174    0.580251070325042    0.072151680481294  0.0000
  O1     O1        0.353399887434728    0.589420699611566    0.892856572539322  0.0000
  O1     O1        0.168758186390014    0.511495663350385    0.883816551522788  0.0000
  O1     O1        0.774766155868173    0.274622104608886    0.020676634323582  0.0000
  O1     O1        0.740087825889719    0.816351138761449    0.030591465351462  0.0000
  O1     O1        0.275064570817161    0.273672475352319    0.947277155589865  0.0000
  O1     O1        0.242240254137239    0.820456720836986    0.952684730454318  0.0000
