data_c00602.vasp
_audit_creation_method             Generated by GULP
_audit_author_name                 Salvador R. G. Balestra
_symmetry_space_group_name_H-M     'P 1             '
_symmetry_Int_Tables_number        1

loop_
_symmetry_equiv_pos_site_id
_symmetry_equiv_pos_as_xyz
_cell_length_a                       17.6312
_cell_length_b                        7.9193
_cell_length_c                       10.2143
_cell_angle_alpha                   88.3789
_cell_angle_beta                    91.1697
_cell_angle_gamma                   89.1831

loop_
_atom_site_label
_atom_site_type_symbol
_atom_site_fract_x
_atom_site_fract_y
_atom_site_fract_z
_atom_site_charge
  Ge     Ge        0.052090000000021    0.000000000000000    0.372269999999958  0.0000
  Ge     Ge        0.449517435197592    0.959402554959724    0.408597526245857  0.0000
  Ge     Ge        0.940818111612653    0.005936750079803    0.617145543183043  0.0000
  Ge     Ge        0.555301774706476    0.024381462100995    0.662831990621186  0.0000
  Ge     Ge        0.556784006928170    0.003019846897173    0.162249818445871  0.0000
  Ge     Ge        0.447155303889471    0.970746692306092    0.910228884084322  0.0000
  Ge     Ge        0.147084363535812    0.316336973340248    0.292956013722445  0.0000
  Ge     Ge        0.352890883217104    0.650676998789712    0.291479178017691  0.0000
  Ge     Ge        0.839496875343401    0.318369110017647    0.707856961346784  0.0000
  Ge     Ge        0.653799580041696    0.341658623095149    0.711839111284889  0.0000
  Ge     Ge        0.171510221181198    0.716780004303343    0.294724177759730  0.0000
  Ge     Ge        0.328952013396514    0.250162157150442    0.292283854467130  0.0000
  Ge     Ge        0.660673641198610    0.305407304621039    0.036562886639312  0.0000
  Ge     Ge        0.853338769786428    0.678102922270849    0.043419429936900  0.0000
  Ge     Ge        0.326462907268112    0.257392056145063    0.976154603988906  0.0000
  Ge     Ge        0.166629514564331    0.725761735838750    0.975911360725584  0.0000
  Ge     Ge        0.348426998618226    0.655684767833111    0.971322583182205  0.0000
  Ge     Ge        0.143656806884588    0.323782652724669    0.976248183914764  0.0000
  Ge     Ge        0.671697614774737    0.714040659121401    0.048449280797619  0.0000
  Ge     Ge        0.842384939051139    0.270552822730481    0.031989491039947  0.0000
  Si     Si        0.956910767125447    0.974143767004474    0.109184134505709  0.0000
  Si     Si        0.054354605819097    0.017829326565090    0.861182924555005  0.0000
  Si     Si        0.662627559124689    0.725332301193575    0.743999809935018  0.0000
  Si     Si        0.844173630909473    0.701324337388219    0.739564507832671  0.0000
  O1     O1        0.088339615196324    0.197878954154587    0.390102664216763  0.0000
  O1     O1        0.420209869458311    0.758863488788525    0.376886492638926  0.0000
  O1     O1        0.895290879415660    0.197253197839414    0.611696235410094  0.0000
  O3     O3        0.632104856722444    0.881526513678262    0.656823082661019  0.0000
  O3     O3        0.872442702293780    0.859261141637729    0.655996784430584  0.0000
  O1     O1        0.592523162755618    0.218037501029628    0.624901407203431  0.0000
  O1     O1        0.122993371479511    0.850417394648338    0.392921749290889  0.0000
  O1     O1        0.375428285988073    0.100178147724298    0.387998547198622  0.0000
  O1     O1        0.974884540259782    0.963524957349731    0.465388404505000  0.0000
  O1     O1        0.479456119130759    0.968043676076488    0.570640292582132  0.0000
  O3     O3        0.026752992752513    0.990479987248852    0.206803463347013  0.0000
  O1     O1        0.528430165512663    0.011401395886492    0.322004942440830  0.0000
  O3     O3        0.021728709325461    0.001931253125658    0.714895516394757  0.0000
  O1     O1        0.524213309748044    0.021510038782464    0.821724750820012  0.0000
  O1     O1        0.595837327713797    0.194831498146836    0.123459145070298  0.0000
  O3     O3        0.915777830319444    0.796420735736883    0.134081731457434  0.0000
  O1     O1        0.374671202612693    0.117408368825920    0.884471218260471  0.0000
  O3     O3        0.122288281056328    0.883193059334515    0.881367808097264  0.0000
  O1     O1        0.410394433652163    0.774553424180666    0.882256467117509  0.0000
  O3     O3        0.082161838526406    0.207714417608805    0.881595923417173  0.0000
  O1     O1        0.622214906330629    0.842298622453876    0.147828792536790  0.0000
  O3     O3        0.897597198778491    0.128571762899528    0.123352509369540  0.0000
  O1     O1        0.475615350369592    0.969134117841510    0.073029926343065  0.0000
  O2     O2        0.985748840849547    0.978450385238891    0.959444098555435  0.0000
  O1     O1        0.158733708623723    0.512804179268307    0.353475655285685  0.0000
  O1     O1        0.343340109075496    0.448385832939506    0.353349172860303  0.0000
  O3     O3        0.858880662269507    0.527824243197573    0.666962116097670  0.0000
  O3     O3        0.637540625823303    0.554193159207469    0.675137205721256  0.0000
  O1     O1        0.233474293364092    0.212236176377468    0.287873223749361  0.0000
  O1     O1        0.266908091268204    0.756910841840634    0.297148355351454  0.0000
  O1     O1        0.745210640941240    0.281999349888118    0.679666050448095  0.0000
  O2     O2        0.753753318397375    0.712800108813246    0.767047422737760  0.0000
  O1     O1        0.112497655296679    0.333855949040619    0.133795890135130  0.0000
  O1     O1        0.379617662300249    0.634791418347721    0.131904983684705  0.0000
  O1     O1        0.863596281184393    0.271320903325238    0.868568704856774  0.0000
  O3     O3        0.631665892623135    0.737801953426881    0.891070829451533  0.0000
  O3     O3        0.883234268910167    0.689916928922121    0.881977430034417  0.0000
  O1     O1        0.634623459779201    0.309585240719477    0.874142371940962  0.0000
  O1     O1        0.138097127698444    0.730491336574850    0.134969166698050  0.0000
  O1     O1        0.361526026217048    0.243522782936793    0.134914847620723  0.0000
  O1     O1        0.665104845408399    0.505736311341021    0.095740524764146  0.0000
  O1     O1        0.854811413594901    0.470198393538278    0.092272405130250  0.0000
  O1     O1        0.339304377430826    0.458518836245768    0.910873856901662  0.0000
  O1     O1        0.149314054245269    0.527833936819874    0.915788662392791  0.0000
  O1     O1        0.749678397959929    0.214300057602896    0.048717111522386  0.0000
  O1     O1        0.765322388043872    0.768013700040152    0.057652348357585  0.0000
  O1     O1        0.230741243712733    0.223730579068540    0.977515216982954  0.0000
  O1     O1        0.262088652420423    0.760282969331888    0.972037445588895  0.0000
