data_c00641.vasp
_audit_creation_method             Generated by GULP
_audit_author_name                 Salvador R. G. Balestra
_symmetry_space_group_name_H-M     'P 1             '
_symmetry_Int_Tables_number        1

loop_
_symmetry_equiv_pos_site_id
_symmetry_equiv_pos_as_xyz
_cell_length_a                       17.4695
_cell_length_b                        7.8293
_cell_length_c                       10.3983
_cell_angle_alpha                   89.6168
_cell_angle_beta                    90.6008
_cell_angle_gamma                   91.5942

loop_
_atom_site_label
_atom_site_type_symbol
_atom_site_fract_x
_atom_site_fract_y
_atom_site_fract_z
_atom_site_charge
  Ge     Ge        0.052090000000021    0.000000000000000    0.372269999999958  0.0000
  Ge     Ge        0.448110687883817    0.057053476616702    0.385358241912187  0.0000
  Ge     Ge        0.950896713698427    0.054706018205417    0.631683138994729  0.0000
  Ge     Ge        0.546984589792717    0.997747093567833    0.644652941450351  0.0000
  Ge     Ge        0.557448612684412    0.991183380524287    0.142544592673605  0.0000
  Ge     Ge        0.174989893013070    0.285864555860815    0.270020995525483  0.0000
  Ge     Ge        0.325363396952880    0.771340154724583    0.271144691042038  0.0000
  Ge     Ge        0.853622694502328    0.366130897172957    0.709644619168784  0.0000
  Ge     Ge        0.646824978713790    0.684091754559448    0.717936457779781  0.0000
  Ge     Ge        0.827913359179766    0.770189084839858    0.714438022745048  0.0000
  Ge     Ge        0.673305061150874    0.280676198986977    0.714872744095727  0.0000
  Ge     Ge        0.143607031085253    0.684045944077093    0.264759047264926  0.0000
  Ge     Ge        0.356858734808458    0.372328676514617    0.270119629131300  0.0000
  Ge     Ge        0.676745781073984    0.278968255312488    0.026710059292818  0.0000
  Ge     Ge        0.835561776445019    0.753471279881436    0.026027983294683  0.0000
  Ge     Ge        0.352871248349646    0.364801066583008    0.956857657949701  0.0000
  Ge     Ge        0.148476998462317    0.690251936041005    0.952083602309406  0.0000
  Ge     Ge        0.332088254722954    0.766436984690053    0.959509336752200  0.0000
  Ge     Ge        0.169183354594848    0.289071687973801    0.957702543225896  0.0000
  Ge     Ge        0.650844431924861    0.678397258719780    0.032219072100925  0.0000
  Si     Si        0.947884618168042    0.051014415450195    0.126968587410527  0.0000
  Si     Si        0.452207163253712    0.058062952155790    0.897363985116926  0.0000
  Si     Si        0.049490689358979    0.998559304266241    0.887294847348925  0.0000
  Si     Si        0.856958011233558    0.357827863617636    0.014349135795763  0.0000
  O1     O1        0.131403077820417    0.130962378523074    0.361419520786251  0.0000
  O1     O1        0.369279889627772    0.926740508464059    0.361068828875615  0.0000
  O1     O1        0.919118874537601    0.259686100976622    0.621343339969963  0.0000
  O1     O1        0.579734955512675    0.794339148235919    0.631875403108586  0.0000
  O1     O1        0.875034100505191    0.911871335163043    0.615838433213253  0.0000
  O1     O1        0.621661011208162    0.141572004212782    0.620267787897127  0.0000
  O1     O1        0.074720785919532    0.792715921123015    0.343623714146825  0.0000
  O1     O1        0.425695609908708    0.264964455045539    0.353456506113093  0.0000
  O1     O1        0.021830999825209    0.014643948319537    0.528229655126137  0.0000
  O1     O1        0.472049357616853    0.036469161246513    0.545636096243990  0.0000
  O3     O3        0.979053966739388    0.066734005557788    0.271409632856606  0.0000
  O1     O1        0.526016630592616    0.999547097593562    0.297821790279576  0.0000
  O3     O3        0.981277201671427    0.028971164720369    0.790293320306136  0.0000
  O3     O3        0.521658013981580    0.024367977920933    0.805039009256353  0.0000
  O1     O1        0.636912183784334    0.122050670723901    0.120722035003429  0.0000
  O3     O3        0.883733096110893    0.900557418640846    0.122282190266997  0.0000
  O3     O3        0.417490335381574    0.244430416643186    0.873954962513363  0.0000
  O3     O3        0.084171686822498    0.812432139706277    0.867097756638950  0.0000
  O3     O3        0.384758039428447    0.916229138669203    0.873594842048981  0.0000
  O3     O3        0.117396769350197    0.139705162903607    0.869189405666540  0.0000
  O1     O1        0.583898159849996    0.785493970343919    0.116134848558712  0.0000
  O2     O2        0.916219346777928    0.236686979988554    0.089012401524693  0.0000
  O3     O3        0.481815114642271    0.051410729857258    0.045128964834423  0.0000
  O2     O2        0.018538272825567    0.005207385554952    0.034595525675991  0.0000
  O1     O1        0.157249570162816    0.485959303150867    0.330271796017633  0.0000
  O1     O1        0.343333965833011    0.570806176084228    0.332896764239559  0.0000
  O1     O1        0.840617816593925    0.567578629340563    0.653672684566054  0.0000
  O1     O1        0.659732049416641    0.485789856963166    0.657382443528743  0.0000
  O1     O1        0.271670519505503    0.256142293683689    0.271909137866551  0.0000
  O1     O1        0.228737531497247    0.801223010107168    0.268636455840640  0.0000
  O1     O1        0.769587012410930    0.245832258537861    0.707337733987251  0.0000
  O1     O1        0.731527610784824    0.803703542940245    0.717231675886102  0.0000
  O1     O1        0.140798503815970    0.276250538544696    0.114654958882759  0.0000
  O1     O1        0.361002321947105    0.778777431951092    0.117548717661818  0.0000
  O3     O3        0.883973122899641    0.386078148026643    0.868863609770020  0.0000
  O1     O1        0.619869582960220    0.662789652183712    0.875561587617854  0.0000
  O1     O1        0.862720189207713    0.782243986398532    0.870067065595939  0.0000
  O1     O1        0.642938623218531    0.264092577823153    0.871714284872232  0.0000
  O1     O1        0.118053870474425    0.658005661875785    0.106646772848837  0.0000
  O1     O1        0.383462975411820    0.394900871027395    0.112559574399476  0.0000
  O1     O1        0.657667647502690    0.474253270590202    0.091224856228626  0.0000
  O3     O3        0.852734674286637    0.544353293723949    0.077351105162765  0.0000
  O1     O1        0.345657701190608    0.566928081282898    0.894751321526125  0.0000
  O1     O1        0.156169992696507    0.489128058888617    0.890824670672811  0.0000
  O3     O3        0.775020743280076    0.260434602736128    0.016534429886339  0.0000
  O1     O1        0.739028848249900    0.782227002972349    0.038510526011172  0.0000
  O1     O1        0.266011242515358    0.255980930680940    0.954416438929173  0.0000
  O1     O1        0.235446137168983    0.799293490335764    0.952911406599078  0.0000
