data_c00605.vasp
_audit_creation_method             Generated by GULP
_audit_author_name                 Salvador R. G. Balestra
_symmetry_space_group_name_H-M     'P 1             '
_symmetry_Int_Tables_number        1

loop_
_symmetry_equiv_pos_site_id
_symmetry_equiv_pos_as_xyz
_cell_length_a                       17.6987
_cell_length_b                        7.8550
_cell_length_c                       10.5231
_cell_angle_alpha                   89.8270
_cell_angle_beta                    90.0581
_cell_angle_gamma                   89.4161

loop_
_atom_site_label
_atom_site_type_symbol
_atom_site_fract_x
_atom_site_fract_y
_atom_site_fract_z
_atom_site_charge
  Ge     Ge        0.052090000000021    0.000000000000000    0.372269999999958  0.0000
  Ge     Ge        0.453549923431599    0.950851482974811    0.387527431335871  0.0000
  Ge     Ge        0.952215593048366    0.985531668060827    0.631957011178250  0.0000
  Ge     Ge        0.551356069967580    0.960688923481045    0.647842721242438  0.0000
  Ge     Ge        0.565834727644470    0.959128616013765    0.143330295972363  0.0000
  Ge     Ge        0.054375009186076    0.987208602151520    0.890856167615520  0.0000
  Ge     Ge        0.152078651181687    0.307733814228599    0.271613210463910  0.0000
  Ge     Ge        0.355596418864909    0.643221702775212    0.278498218401863  0.0000
  Ge     Ge        0.851866132016691    0.297815624376564    0.715126986125273  0.0000
  Ge     Ge        0.654308506677982    0.649185508564895    0.727603609080395  0.0000
  Ge     Ge        0.832966858402758    0.706956321356782    0.716151967493929  0.0000
  Ge     Ge        0.673113761775830    0.238422519316854    0.722835230653435  0.0000
  Ge     Ge        0.175846237515108    0.711535533314753    0.267010700528992  0.0000
  Ge     Ge        0.331656255325033    0.239811235460964    0.276318051516812  0.0000
  Ge     Ge        0.677000557661082    0.249747992435807    0.028671160594113  0.0000
  Ge     Ge        0.839665703144557    0.688986100522700    0.022805764804516  0.0000
  Ge     Ge        0.337725431373125    0.244376075425445    0.966662633785921  0.0000
  Ge     Ge        0.179269922029283    0.705140409315924    0.957831482905303  0.0000
  Ge     Ge        0.361063256886490    0.647333712279582    0.968758292370790  0.0000
  Ge     Ge        0.155885465241113    0.302676175023781    0.960400905720795  0.0000
  Si     Si        0.947415582228320    0.979193635859685    0.130186334767269  0.0000
  Si     Si        0.457097389916166    0.961765196471306    0.903036938725568  0.0000
  Si     Si        0.659885489982245    0.647367428176420    0.030121106632630  0.0000
  Si     Si        0.856675104265829    0.291732203126144    0.016531298539507  0.0000
  O1     O1        0.085306228472550    0.202501477780053    0.358399752660640  0.0000
  O1     O1        0.420450352398628    0.748685433046880    0.368455097183676  0.0000
  O1     O1        0.915109816974790    0.188098374991376    0.623515751029550  0.0000
  O1     O1        0.589123080231233    0.759046021749503    0.639489788228937  0.0000
  O1     O1        0.881298329938951    0.838512532983769    0.616965171868867  0.0000
  O1     O1        0.621282950840396    0.108948963097252    0.627493492816880  0.0000
  O1     O1        0.124981349010207    0.859688566897032    0.348809948010220  0.0000
  O1     O1        0.381292056791336    0.092950187497939    0.361991820209641  0.0000
  O1     O1        0.022703011834245    0.960957663430742    0.524960740668026  0.0000
  O1     O1        0.479648967654305    0.983488989968804    0.543209174623243  0.0000
  O3     O3        0.973768365442544    0.975879390613318    0.275409764979412  0.0000
  O1     O1        0.532526469792271    0.977219892382415    0.295210078292912  0.0000
  O1     O1        0.985406349038277    0.950822638127474    0.784116610416416  0.0000
  O3     O3        0.522260894063358    0.995137851465753    0.803355227058859  0.0000
  O1     O1        0.633993581355779    0.111795761213809    0.128977934364209  0.0000
  O3     O3        0.885752811847676    0.831496598120075    0.117839260488889  0.0000
  O3     O3        0.388383026632634    0.095251055414856    0.881944553799598  0.0000
  O1     O1        0.129394954093809    0.848064336303707    0.869286281190197  0.0000
  O3     O3        0.425349661978695    0.771372569644257    0.887312152412941  0.0000
  O1     O1        0.091282151813265    0.187607555649259    0.876426500910188  0.0000
  O3     O3        0.605305072792391    0.759979622432372    0.117472103703858  0.0000
  O2     O2        0.912609444992242    0.164485706552286    0.092764457005222  0.0000
  O3     O3        0.489044943444784    0.992041628418580    0.044911302824101  0.0000
  O3     O3        0.020116898231967    0.946204080956181    0.042939077943199  0.0000
  O1     O1        0.162329291874209    0.509642055289150    0.328209497093107  0.0000
  O1     O1        0.343413794556321    0.442230437972247    0.336613474458962  0.0000
  O1     O1        0.841337787781686    0.500492680383344    0.661259095548974  0.0000
  O1     O1        0.663119500475857    0.446951176058767    0.672640748850501  0.0000
  O1     O1        0.236966522880066    0.197749474398790    0.278800959300697  0.0000
  O1     O1        0.270736657435199    0.752866183425165    0.276145582205718  0.0000
  O1     O1        0.767727159727248    0.190317703327323    0.714469978035018  0.0000
  O1     O1        0.738539185130190    0.756301461664472    0.718913374011606  0.0000
  O1     O1        0.124957852850756    0.311601041386053    0.114968659702797  0.0000
  O1     O1        0.388679351541326    0.636007107359983    0.124799850260980  0.0000
  O3     O3        0.884457836025187    0.302678656098061    0.871575532149546  0.0000
  O3     O3        0.628152398732801    0.644836642813238    0.886843661686770  0.0000
  O1     O1        0.868074141849342    0.714316421766538    0.869304779308162  0.0000
  O1     O1        0.642987672961627    0.223532057479150    0.878201896119095  0.0000
  O1     O1        0.147201725674591    0.709339647436523    0.111991980753430  0.0000
  O1     O1        0.364491293141362    0.242552024843967    0.123248411718563  0.0000
  O3     O3        0.662563496896726    0.455787784404053    0.082952760382362  0.0000
  O3     O3        0.857587237786965    0.481062859881139    0.074150742446886  0.0000
  O1     O1        0.354965539143654    0.446243855796937    0.907655609152053  0.0000
  O1     O1        0.166029658310668    0.502419384664113    0.899156489337668  0.0000
  O3     O3        0.773397187339671    0.213955174858012    0.021347018485121  0.0000
  O3     O3        0.743505613375800    0.726803037794586    0.029574900150186  0.0000
  O1     O1        0.243197523335174    0.202191904802976    0.958120944075286  0.0000
  O1     O1        0.274081639937038    0.746341362844888    0.959936026253408  0.0000
