data_c00637.vasp
_audit_creation_method             Generated by GULP
_audit_author_name                 Salvador R. G. Balestra
_symmetry_space_group_name_H-M     'P 1             '
_symmetry_Int_Tables_number        1

loop_
_symmetry_equiv_pos_site_id
_symmetry_equiv_pos_as_xyz
_cell_length_a                       17.7915
_cell_length_b                        7.8793
_cell_length_c                       10.3537
_cell_angle_alpha                   90.1153
_cell_angle_beta                    90.7624
_cell_angle_gamma                   90.1658

loop_
_atom_site_label
_atom_site_type_symbol
_atom_site_fract_x
_atom_site_fract_y
_atom_site_fract_z
_atom_site_charge
  Ge     Ge        0.052090000000021    0.000000000000000    0.372269999999958  0.0000
  Ge     Ge        0.450304859359547    0.035490434190529    0.387299438971034  0.0000
  Ge     Ge        0.943337482089606    0.007367755237230    0.621729059632881  0.0000
  Ge     Ge        0.552998762702276    0.024000768566848    0.649647769298713  0.0000
  Ge     Ge        0.555276092872234    0.036505793083029    0.137286366137050  0.0000
  Ge     Ge        0.049726586078899    0.012695732944177    0.879726243716405  0.0000
  Ge     Ge        0.172707503463067    0.285910501738049    0.263352214802137  0.0000
  Ge     Ge        0.330295396523964    0.749528692802370    0.272726633376129  0.0000
  Ge     Ge        0.828076022224295    0.294683450099595    0.702307903138902  0.0000
  Ge     Ge        0.842842931691402    0.693701910060439    0.693952542363987  0.0000
  Ge     Ge        0.150939619702448    0.690753377790269    0.267763110450727  0.0000
  Ge     Ge        0.352023802480770    0.345791592423274    0.271878418611816  0.0000
  Ge     Ge        0.653522178955710    0.343887503362987    0.024191478849101  0.0000
  Ge     Ge        0.853033415220289    0.704034610429661    0.010492802000220  0.0000
  Ge     Ge        0.352563125261323    0.345103693538797    0.956803681898401  0.0000
  Ge     Ge        0.152838908284335    0.699014854422599    0.952734008335049  0.0000
  Ge     Ge        0.333901232459277    0.748558454222412    0.958445124555390  0.0000
  Ge     Ge        0.171826559828412    0.295041076950924    0.948766479734533  0.0000
  Ge     Ge        0.672934372338427    0.752416588126645    0.016430167828875  0.0000
  Ge     Ge        0.834338379306597    0.297346317559092    0.015505633203710  0.0000
  Si     Si        0.948379564443172    0.013348346247124    0.124295439460890  0.0000
  Si     Si        0.448787751318142    0.032623098596372    0.893539562997300  0.0000
  Si     Si        0.665640052217707    0.732638827587039    0.710304971254449  0.0000
  Si     Si        0.650405684716137    0.338075728480604    0.719681758691843  0.0000
  O1     O1        0.123272828719000    0.142691608884548    0.351902907680399  0.0000
  O1     O1        0.378870780392530    0.892065641383414    0.365307138200062  0.0000
  O1     O1        0.872465402722717    0.154548301857975    0.604652617508952  0.0000
  O3     O3        0.614954816728210    0.856713278412117    0.623762073781274  0.0000
  O1     O1        0.900901026513525    0.813319766298839    0.600703965671564  0.0000
  O3     O3        0.597320567821479    0.219803890980299    0.631705057890825  0.0000
  O1     O1        0.086615947796639    0.798835213257523    0.357687477837281  0.0000
  O1     O1        0.417336604591583    0.236758087577300    0.360608934983168  0.0000
  O1     O1        0.019011347762764    0.031803769837792    0.525843775638458  0.0000
  O1     O1        0.479334462394786    0.014007422150190    0.545522378748976  0.0000
  O3     O3        0.974543957803812    0.027714826041966    0.272422318957324  0.0000
  O1     O1        0.527049579280547    0.001349684235613    0.292189844128644  0.0000
  O1     O1        0.974632470720768    0.032674529645073    0.779274869263354  0.0000
  O3     O3        0.520272750429088    0.004743155887753    0.805542172896839  0.0000
  O1     O1        0.591103728218577    0.237487361003007    0.117766681894771  0.0000
  O3     O3        0.919604781944795    0.823674517194755    0.091552833664879  0.0000
  O3     O3        0.414088483155251    0.218912667882587    0.871222598015448  0.0000
  O1     O1        0.089918480267224    0.815859064273501    0.864254217680207  0.0000
  O3     O3        0.384383015021790    0.891876290788900    0.868067153306561  0.0000
  O1     O1        0.119723841696233    0.160204468160135    0.854653598363707  0.0000
  O1     O1        0.625417383177004    0.894203903925130    0.107014281615289  0.0000
  O3     O3        0.882520598751222    0.149104795483125    0.104935185157444  0.0000
  O3     O3        0.475562019982874    0.009964076281930    0.042181229558981  0.0000
  O3     O3        0.020051892374202    0.051593808517179    0.036480664728302  0.0000
  O1     O1        0.160405769719437    0.488214308007432    0.323960397273296  0.0000
  O1     O1        0.341340829254963    0.546416277300610    0.331983525725677  0.0000
  O1     O1        0.841601160752895    0.491816589722249    0.636217401557142  0.0000
  O2     O2        0.654866507036478    0.533481246374842    0.670057074546419  0.0000
  O1     O1        0.266938927909311    0.240558664895461    0.270948608958503  0.0000
  O1     O1        0.236156325128845    0.795150826804901    0.273230837597323  0.0000
  O3     O3        0.732972824604772    0.256454922650398    0.717042198710948  0.0000
  O3     O3        0.752818492834065    0.779039562341757    0.695638167444990  0.0000
  O1     O1        0.142088822236486    0.285214353701681    0.106042677414444  0.0000
  O1     O1        0.362628737103111    0.751419703634748    0.117239862829575  0.0000
  O1     O1        0.862881455368860    0.289153462609274    0.858117525060849  0.0000
  O3     O3        0.641322519840009    0.757917798532046    0.857780471483901  0.0000
  O1     O1        0.876673458696994    0.695061675661350    0.850376037295097  0.0000
  O3     O3        0.620737985679932    0.335779331556799    0.865238871173793  0.0000
  O1     O1        0.121652248794633    0.689078410479799    0.108946771914207  0.0000
  O1     O1        0.382086912390202    0.357410970119916    0.114848634714395  0.0000
  O1     O1        0.659836261649156    0.550171898682904    0.074166395031387  0.0000
  O1     O1        0.850149995566923    0.501386429999252    0.070655110530897  0.0000
  O1     O1        0.347244958428605    0.546969100037521    0.896769930265342  0.0000
  O1     O1        0.160805248074836    0.498771511778711    0.891390263178149  0.0000
  O1     O1        0.740697236207972    0.251653680398108    0.029762823156032  0.0000
  O1     O1        0.766875614495631    0.798899518184662    0.022580218360831  0.0000
  O1     O1        0.265844411044175    0.248543073806572    0.949104536804856  0.0000
  O1     O1        0.239945940308686    0.795819726033362    0.952385013727159  0.0000
