data_c00651.vasp
_audit_creation_method             Generated by GULP
_audit_author_name                 Salvador R. G. Balestra
_symmetry_space_group_name_H-M     'P 1             '
_symmetry_Int_Tables_number        1

loop_
_symmetry_equiv_pos_site_id
_symmetry_equiv_pos_as_xyz
_cell_length_a                       17.5515
_cell_length_b                        7.8392
_cell_length_c                       10.3105
_cell_angle_alpha                   89.9011
_cell_angle_beta                    90.5329
_cell_angle_gamma                   88.0515

loop_
_atom_site_label
_atom_site_type_symbol
_atom_site_fract_x
_atom_site_fract_y
_atom_site_fract_z
_atom_site_charge
  Ge     Ge        0.052090000000021    0.000000000000000    0.372269999999958  0.0000
  Ge     Ge        0.453462171516314    0.933554523642196    0.375817905873546  0.0000
  Ge     Ge        0.947547906687796    0.938849146053545    0.622122632070237  0.0000
  Ge     Ge        0.562225635587241    0.989141179177779    0.132484595280534  0.0000
  Ge     Ge        0.943658416468950    0.945064016772634    0.125434428450430  0.0000
  Ge     Ge        0.450184837959551    0.935784125650690    0.883704548624030  0.0000
  Ge     Ge        0.050146115875437    0.005644161498774    0.877885745848451  0.0000
  Ge     Ge        0.148077342057305    0.308678028072542    0.257189546590755  0.0000
  Ge     Ge        0.356538749573476    0.626903638435216    0.261279147254422  0.0000
  Ge     Ge        0.823760897857222    0.224698243438318    0.700471214047173  0.0000
  Ge     Ge        0.667419579519036    0.699532047003244    0.703591503426556  0.0000
  Ge     Ge        0.849720626860348    0.628207135240080    0.692829178136139  0.0000
  Ge     Ge        0.640979199657211    0.295333606749135    0.705265542024097  0.0000
  Ge     Ge        0.175850801976266    0.710507215730520    0.262922396058628  0.0000
  Ge     Ge        0.329486113280882    0.223043645577021    0.260758019400876  0.0000
  Ge     Ge        0.648888668531901    0.308626489097308    0.015442328642832  0.0000
  Ge     Ge        0.854790030536115    0.625924645766835    0.006260496991816  0.0000
  Ge     Ge        0.330351384774093    0.234695512501782    0.946837225055754  0.0000
  Ge     Ge        0.174864268846024    0.715754179688243    0.948249283423459  0.0000
  Ge     Ge        0.148888285000866    0.317543272632340    0.939600879586291  0.0000
  Si     Si        0.548495222397899    0.984200960283171    0.631158744598843  0.0000
  Si     Si        0.352338822162434    0.629771063667574    0.952660789060299  0.0000
  Si     Si        0.674368339982714    0.699078065661449    0.011930270949306  0.0000
  Si     Si        0.829967603834035    0.233719558596888    0.005942617669740  0.0000
  O1     O1        0.080005416150483    0.202965864750880    0.340480839734105  0.0000
  O1     O1        0.426198948842182    0.729686631455055    0.343551596216663  0.0000
  O1     O1        0.872530048960152    0.084551308431539    0.603914860020383  0.0000
  O3     O3        0.617474967457926    0.846468578634614    0.608818435548803  0.0000
  O1     O1        0.912275463385155    0.739248530698730    0.600311178523139  0.0000
  O3     O3        0.578050980781980    0.174881470809858    0.615628435985657  0.0000
  O1     O1        0.127534706349084    0.858779025545520    0.354105218304312  0.0000
  O1     O1        0.377595845214049    0.072911915305226    0.352478071408284  0.0000
  O1     O1        0.024489064565375    0.984666822350350    0.532136126013160  0.0000
  O3     O3        0.477605383971183    0.950319319668897    0.539205722501699  0.0000
  O1     O1        0.971652915820396    0.952507693996193    0.285043731626595  0.0000
  O1     O1        0.533626847441649    0.976993984258822    0.290402352343097  0.0000
  O1     O1        0.975492193467371    0.954760157116258    0.783372625254750  0.0000
  O3     O3        0.525047149250186    0.954247501942705    0.780795360728543  0.0000
  O1     O1        0.593609192952482    0.193418718799241    0.114576006393289  0.0000
  O1     O1        0.915736591289555    0.739459681371858    0.098366743389485  0.0000
  O1     O1        0.382512703431267    0.095522368641394    0.853506540826499  0.0000
  O1     O1        0.127903416061098    0.866473479554874    0.857477097529498  0.0000
  O3     O3        0.410567049076532    0.736473672939319    0.869178365985566  0.0000
  O1     O1        0.083197806115451    0.207034986253151    0.852902933608707  0.0000
  O3     O3        0.636635340299410    0.846897604938635    0.098507895763249  0.0000
  O3     O3        0.867737371002624    0.086278905856243    0.094547962993945  0.0000
  O1     O1        0.483274839931519    0.951765797636463    0.040276458288903  0.0000
  O1     O1        0.022018993653126    0.993514697112416    0.037884815262022  0.0000
  O1     O1        0.160819174062276    0.507783514006307    0.320572921943167  0.0000
  O1     O1        0.345384750244992    0.425032100239675    0.319462151011397  0.0000
  O1     O1        0.837500978033649    0.426357502483940    0.638792285326749  0.0000
  O1     O1        0.649208514557393    0.497496725262933    0.646466777504898  0.0000
  O1     O1        0.233223325374044    0.192003733708506    0.262773308807000  0.0000
  O1     O1        0.272001091068999    0.743299896212347    0.270716546648250  0.0000
  O1     O1        0.728524130855726    0.189001282568952    0.701189755662986  0.0000
  O1     O1        0.762335362530762    0.736421475360332    0.692684532571892  0.0000
  O1     O1        0.120453307393809    0.334247653594604    0.098536062789290  0.0000
  O3     O3        0.382294249471490    0.606308188286382    0.099822019882120  0.0000
  O3     O3        0.860013867271068    0.218007958395921    0.858778803800568  0.0000
  O3     O3        0.641190197526420    0.704666156262339    0.865768269383092  0.0000
  O1     O1        0.885005208748790    0.623765378514129    0.849399223965247  0.0000
  O1     O1        0.609716386030933    0.305431350751323    0.862593046902974  0.0000
  O1     O1        0.143159295246895    0.726535874360734    0.105654414758207  0.0000
  O1     O1        0.361562817541484    0.207995110506182    0.104174288420504  0.0000
  O3     O3        0.655620527337415    0.515024878932676    0.072135055679293  0.0000
  O3     O3        0.851291678449249    0.417963061399330    0.062630802899750  0.0000
  O3     O3        0.341144960302724    0.443940827601523    0.893175912466670  0.0000
  O1     O1        0.157369002836930    0.519147702620021    0.881128477115838  0.0000
  O3     O3        0.739407936944340    0.216958924772761    0.001916857226758  0.0000
  O3     O3        0.764548265962161    0.721673972487601    0.008388837009243  0.0000
  O1     O1        0.234628241209232    0.202410269038331    0.938461910114374  0.0000
  O3     O3        0.272484121617946    0.738831068598770    0.955788743007744  0.0000
