data_c00645.vasp
_audit_creation_method             Generated by GULP
_audit_author_name                 Salvador R. G. Balestra
_symmetry_space_group_name_H-M     'P 1             '
_symmetry_Int_Tables_number        1

loop_
_symmetry_equiv_pos_site_id
_symmetry_equiv_pos_as_xyz
_cell_length_a                       17.5944
_cell_length_b                        7.8219
_cell_length_c                       10.2017
_cell_angle_alpha                   87.8766
_cell_angle_beta                    90.8338
_cell_angle_gamma                   91.2269

loop_
_atom_site_label
_atom_site_type_symbol
_atom_site_fract_x
_atom_site_fract_y
_atom_site_fract_z
_atom_site_charge
  Ge     Ge        0.052090000000021    0.000000000000000    0.372269999999958  0.0000
  Ge     Ge        0.441601927388362    0.063447905145510    0.369035809200946  0.0000
  Ge     Ge        0.947424926879354    0.086046019234760    0.619399357278315  0.0000
  Ge     Ge        0.541163689247793    0.043787334668715    0.631491125529825  0.0000
  Ge     Ge        0.556642708427278    0.016092610236812    0.137729876403550  0.0000
  Ge     Ge        0.175146248610430    0.289950723244303    0.261823392156286  0.0000
  Ge     Ge        0.328785107686101    0.762658286044010    0.271470002618322  0.0000
  Ge     Ge        0.850013212319125    0.397910806644306    0.693164496608465  0.0000
  Ge     Ge        0.642016243380257    0.723754454579144    0.696831220492111  0.0000
  Ge     Ge        0.822270573195036    0.800401424057259    0.689669922845690  0.0000
  Ge     Ge        0.669037838851077    0.319505984264617    0.702794404398521  0.0000
  Ge     Ge        0.143470461933042    0.688754259361068    0.270562631279620  0.0000
  Ge     Ge        0.675792881435038    0.307148929436478    0.020895042598991  0.0000
  Ge     Ge        0.830354320768655    0.793129640678579    0.010524205097653  0.0000
  Ge     Ge        0.343581417915155    0.402874856770345    0.932882919930672  0.0000
  Ge     Ge        0.147114685443788    0.732351265737066    0.954530562298816  0.0000
  Ge     Ge        0.331723654496393    0.801125457207423    0.958247603228301  0.0000
  Ge     Ge        0.167341891158296    0.328788958549400    0.933342213037526  0.0000
  Ge     Ge        0.649582567282148    0.710812842133486    0.018353338047383  0.0000
  Ge     Ge        0.857104684183252    0.389395429627710    0.011183878731968  0.0000
  Si     Si        0.947410650567299    0.075740316896330    0.123387198024173  0.0000
  Si     Si        0.448701681483979    0.097207759837875    0.892730118474467  0.0000
  Si     Si        0.046300656577256    0.039777854613214    0.877922839446792  0.0000
  Si     Si        0.347174333943434    0.375068918528904    0.254371451021961  0.0000
  O1     O1        0.132632929358204    0.117625515896383    0.336971725329255  0.0000
  O1     O1        0.372662473636991    0.907319725333405    0.371415280499094  0.0000
  O1     O1        0.912672284211875    0.288497216351848    0.601280675268210  0.0000
  O1     O1        0.572739475018260    0.839080101494753    0.616005307017256  0.0000
  O1     O1        0.873767433991729    0.942950608413164    0.594017095213705  0.0000
  O1     O1        0.617637543940593    0.181540511928530    0.609062021075480  0.0000
  O1     O1        0.078290795950676    0.791769186986860    0.361825087064240  0.0000
  O3     O3        0.417579461733208    0.258608162300682    0.293226393883988  0.0000
  O1     O1        0.024051305143456    0.045960480124273    0.526970995756765  0.0000
  O1     O1        0.466622475655909    0.092959251891882    0.530845335885781  0.0000
  O3     O3        0.975250616709205    0.053593269390680    0.272614111172619  0.0000
  O1     O1        0.523929877005652    0.006992070122026    0.295167345829734  0.0000
  O3     O3        0.974413520784260    0.059874633321076    0.784183022205257  0.0000
  O3     O3        0.515286033421497    0.064954905127497    0.794370777355277  0.0000
  O1     O1        0.632717336156969    0.154908535869889    0.120619060266474  0.0000
  O3     O3        0.877271967573606    0.946623699561895    0.099440460657704  0.0000
  O3     O3        0.418036773329999    0.290972615914747    0.875347283053805  0.0000
  O3     O3        0.087843562765078    0.861856331923334    0.860045346230341  0.0000
  O3     O3        0.378499686226478    0.965073154881434    0.871724143112113  0.0000
  O3     O3        0.106576929122140    0.194310704130475    0.850238109547587  0.0000
  O1     O1        0.582913540989407    0.812849806868762    0.104379656050582  0.0000
  O3     O3        0.923844213690381    0.271386428042564    0.099179552344332  0.0000
  O3     O3        0.480212614311551    0.080434239059089    0.040873852437900  0.0000
  O2     O2        0.018396017816868    0.036725312769798    0.029746321283534  0.0000
  O1     O1        0.148675386655249    0.479869588854396    0.325799829232183  0.0000
  O3     O3        0.349814928763845    0.554565349563773    0.326318524301971  0.0000
  O1     O1        0.834973570177665    0.599168810959660    0.629967082954834  0.0000
  O1     O1        0.653795473508517    0.524480602580320    0.639223117686831  0.0000
  O3     O3        0.271719037129199    0.264106378553199    0.290007830213681  0.0000
  O1     O1        0.232491309389355    0.784715010704490    0.275414292611010  0.0000
  O1     O1        0.764909819518511    0.283715550701378    0.699533885465962  0.0000
  O1     O1        0.726916931822326    0.839426267300456    0.687151552640181  0.0000
  O1     O1        0.152857168339554    0.297973737899419    0.097976960302031  0.0000
  O1     O1        0.364398360288368    0.808365136656137    0.117891893421408  0.0000
  O1     O1        0.884567057719228    0.413912429266113    0.851055131836102  0.0000
  O1     O1        0.618525639362922    0.697648349207807    0.859152181720497  0.0000
  O1     O1        0.855441612803113    0.805218164368892    0.849247708241786  0.0000
  O1     O1        0.640362538653895    0.298406207263878    0.863628467497317  0.0000
  O1     O1        0.112931481950215    0.698208233907719    0.109715617306100  0.0000
  O3     O3        0.340001778913237    0.432426653634949    0.101073823763121  0.0000
  O1     O1        0.662017041095755    0.507167502547907    0.080923119687350  0.0000
  O1     O1        0.849618511127566    0.589596323037622    0.072464500870467  0.0000
  O1     O1        0.348323980155234    0.613446408354831    0.880172330528600  0.0000
  O1     O1        0.152301362379783    0.538434557036274    0.883978217310161  0.0000
  O1     O1        0.772062531532041    0.278384688005984    0.016918756835060  0.0000
  O1     O1        0.734545163559328    0.824570415881386    0.021287130727452  0.0000
  O1     O1        0.260587779172508    0.296228545082780    0.894786878705428  0.0000
  O1     O1        0.235421890459678    0.831148616286000    0.962103652063450  0.0000
