data_c00685.vasp
_audit_creation_method             Generated by GULP
_audit_author_name                 Salvador R. G. Balestra
_symmetry_space_group_name_H-M     'P 1             '
_symmetry_Int_Tables_number        1

loop_
_symmetry_equiv_pos_site_id
_symmetry_equiv_pos_as_xyz
_cell_length_a                       17.6542
_cell_length_b                        7.7977
_cell_length_c                       10.2563
_cell_angle_alpha                   89.0222
_cell_angle_beta                    90.7886
_cell_angle_gamma                   90.7590

loop_
_atom_site_label
_atom_site_type_symbol
_atom_site_fract_x
_atom_site_fract_y
_atom_site_fract_z
_atom_site_charge
  Ge     Ge        0.052090000000021    0.000000000000000    0.372269999999958  0.0000
  Ge     Ge        0.447316130268607    0.046594537259765    0.407047817968050  0.0000
  Ge     Ge        0.944833568404361    0.058126657206554    0.619368560467155  0.0000
  Ge     Ge        0.556664245398727    0.012933135513221    0.163595029331696  0.0000
  Ge     Ge        0.948755835466337    0.071279922745684    0.116023043877569  0.0000
  Ge     Ge        0.447899388477622    0.076768704825029    0.910876033205643  0.0000
  Ge     Ge        0.054156803025555    0.016702798565479    0.868155610829165  0.0000
  Ge     Ge        0.175278772035618    0.281276798749854    0.293535099321546  0.0000
  Ge     Ge        0.329331649169220    0.756191611051241    0.304387447486811  0.0000
  Ge     Ge        0.847436953529513    0.369669965506749    0.737209231733680  0.0000
  Ge     Ge        0.642263092790053    0.703313675586450    0.730236983341202  0.0000
  Ge     Ge        0.822216459679068    0.774794926247883    0.726006064563978  0.0000
  Ge     Ge        0.666079809767987    0.295735890296131    0.738515750231191  0.0000
  Ge     Ge        0.149513299815145    0.684720344512430    0.307197629371491  0.0000
  Ge     Ge        0.671277615509962    0.309028503052267    0.053395433353216  0.0000
  Ge     Ge        0.824082763907207    0.789109639486699    0.041944595296521  0.0000
  Ge     Ge        0.349248432033131    0.388735057242644    0.973700245348038  0.0000
  Ge     Ge        0.325230866410172    0.791133216738989    0.989807017837165  0.0000
  Ge     Ge        0.171011610061677    0.309347328474084    0.978135604921372  0.0000
  Ge     Ge        0.850532144796912    0.388060490368783    0.055479078224825  0.0000
  Si     Si        0.547110478251987    0.017197985110999    0.661265644617241  0.0000
  Si     Si        0.351578657688378    0.358475604182630    0.285441695726492  0.0000
  Si     Si        0.149282160584403    0.709890803089928    0.996487095916949  0.0000
  Si     Si        0.648290260378505    0.708783129306706    0.039577199001719  0.0000
  O1     O1        0.130030771430880    0.133716213135964    0.389712551987386  0.0000
  O1     O1        0.379057618380227    0.889614542223765    0.405544969307956  0.0000
  O1     O1        0.915031679463337    0.259807014783248    0.655827003211681  0.0000
  O3     O3        0.576161479474944    0.824090605106798    0.643847686020666  0.0000
  O1     O1        0.870047408290477    0.917595254224190    0.628611412897274  0.0000
  O3     O3        0.616671628157077    0.150882420711806    0.643182163762927  0.0000
  O1     O1        0.083536139293684    0.793636254162778    0.393385011229708  0.0000
  O3     O3        0.414607518065480    0.246407100083665    0.359189442722509  0.0000
  O1     O1        0.976048763043426    0.055302828120533    0.460235388382574  0.0000
  O3     O3        0.476954072612642    0.062338770771734    0.569120851390421  0.0000
  O1     O1        0.024236431642767    0.018465618949760    0.209876291511659  0.0000
  O1     O1        0.525442841617418    0.994219665824772    0.320865124147056  0.0000
  O1     O1        0.023193837012443    0.998578266107101    0.709323160186663  0.0000
  O3     O3        0.521215254803820    0.031222430907121    0.811554769353638  0.0000
  O1     O1        0.625113789733306    0.170908991143514    0.156566483637122  0.0000
  O1     O1        0.871273651133553    0.935301975556537    0.133916171315833  0.0000
  O1     O1        0.415605725873763    0.282429798434941    0.888158354249226  0.0000
  O3     O3        0.087457599012679    0.817386997038751    0.916568655500921  0.0000
  O1     O1        0.370585992136024    0.940462817282637    0.895854339438352  0.0000
  O1     O1        0.120984600545114    0.178347088380116    0.875980799458786  0.0000
  O3     O3        0.588632083145845    0.812573174339427    0.121080605156784  0.0000
  O1     O1        0.916737205017101    0.275031808993812    0.143128340616948  0.0000
  O1     O1        0.479388811030268    0.063215945604654    0.069752758489502  0.0000
  O1     O1        0.975778294260921    0.065270271284968    0.955013888761504  0.0000
  O1     O1        0.157168469866286    0.478031741875586    0.360001973915397  0.0000
  O3     O3        0.341079323218493    0.542165031161649    0.351399226034904  0.0000
  O1     O1        0.834717407107133    0.570431682820421    0.670071043935395  0.0000
  O1     O1        0.649403703627070    0.499304835994230    0.675150834734930  0.0000
  O3     O3        0.272295792879663    0.251911904125060    0.288752965082827  0.0000
  O1     O1        0.234407990351079    0.794332623282233    0.316253821692864  0.0000
  O1     O1        0.761757803877094    0.259543460028693    0.734625709769879  0.0000
  O1     O1        0.726816731627944    0.812847133155941    0.721242000279209  0.0000
  O1     O1        0.141565955629107    0.271138265978665    0.135095010977427  0.0000
  O1     O1        0.359061441935565    0.797879817468663    0.148085783774901  0.0000
  O1     O1        0.876667903697601    0.402476513082860    0.894339819845134  0.0000
  O3     O3        0.617619243146629    0.682505009443737    0.892963085110573  0.0000
  O1     O1        0.855252043102159    0.797941567962644    0.883600273015324  0.0000
  O1     O1        0.636570300009623    0.280775122535857    0.897757544789545  0.0000
  O3     O3        0.122544712355730    0.677176628630656    0.143642192401871  0.0000
  O3     O3        0.375037609147483    0.398339601454569    0.137832473091117  0.0000
  O3     O3        0.661610489328185    0.521072752328944    0.101588236411438  0.0000
  O1     O1        0.841657424037001    0.590290461003356    0.111729240281166  0.0000
  O1     O1        0.341353198453243    0.595063884487913    0.920702739739444  0.0000
  O3     O3        0.160507480551385    0.524850149278029    0.933698997271667  0.0000
  O1     O1        0.766417092321167    0.272706355139194    0.057050097542749  0.0000
  O3     O3        0.726872957667280    0.817729265702779    0.036582435314096  0.0000
  O1     O1        0.265831660075277    0.272781751394205    0.965344012413401  0.0000
  O3     O3        0.227996470803558    0.818511064546147    0.996260409049486  0.0000
