data_c00695.vasp
_audit_creation_method             Generated by GULP
_audit_author_name                 Salvador R. G. Balestra
_symmetry_space_group_name_H-M     'P 1             '
_symmetry_Int_Tables_number        1

loop_
_symmetry_equiv_pos_site_id
_symmetry_equiv_pos_as_xyz
_cell_length_a                       17.5441
_cell_length_b                        7.8158
_cell_length_c                       10.2626
_cell_angle_alpha                   90.3169
_cell_angle_beta                    91.0472
_cell_angle_gamma                   88.4835

loop_
_atom_site_label
_atom_site_type_symbol
_atom_site_fract_x
_atom_site_fract_y
_atom_site_fract_z
_atom_site_charge
  Ge     Ge        0.052090000000021    0.000000000000000    0.372269999999958  0.0000
  Ge     Ge        0.448367060540701    0.955086857741370    0.415861069794166  0.0000
  Ge     Ge        0.945635673468994    0.962380301475828    0.621846915387042  0.0000
  Ge     Ge        0.557350934713552    0.011889594710194    0.172705171277536  0.0000
  Ge     Ge        0.949162806900052    0.945572012948956    0.111877278782830  0.0000
  Ge     Ge        0.451509000266062    0.935752947263741    0.916589248799133  0.0000
  Ge     Ge        0.057327158410543    0.999636016532453    0.867484201879154  0.0000
  Ge     Ge        0.151826302422494    0.313602331746930    0.303990307152104  0.0000
  Ge     Ge        0.358060455505990    0.634502983123955    0.296549891694866  0.0000
  Ge     Ge        0.823919735124853    0.248749942176660    0.732649916571429  0.0000
  Ge     Ge        0.667165191688645    0.731986707946557    0.739670658588282  0.0000
  Ge     Ge        0.848810946931405    0.652746479271108    0.739691385580075  0.0000
  Ge     Ge        0.641804405206583    0.328365900609254    0.736882856878294  0.0000
  Ge     Ge        0.175368313695256    0.716180446421145    0.299067109106975  0.0000
  Ge     Ge        0.646234490418845    0.326409412120269    0.053624953598266  0.0000
  Ge     Ge        0.326159147027020    0.222046576103095    0.992147493039307  0.0000
  Ge     Ge        0.173975173411404    0.703028204231337    0.984445030812412  0.0000
  Ge     Ge        0.356114891195262    0.622322984879956    0.981621628134149  0.0000
  Ge     Ge        0.674996755958818    0.726717453258005    0.055868144476076  0.0000
  Ge     Ge        0.827782995807375    0.242668867806255    0.046962098869645  0.0000
  Si     Si        0.547369011404669    0.015506954862608    0.667644271711410  0.0000
  Si     Si        0.329499472677824    0.237521393595170    0.301388634443633  0.0000
  Si     Si        0.851344042512726    0.637006814791602    0.048935601166537  0.0000
  Si     Si        0.149442455252818    0.304800596382306    0.993846661752396  0.0000
  O1     O1        0.087591274317872    0.202233572790715    0.390100541651502  0.0000
  O1     O1        0.421427217592360    0.748495727828025    0.389596304342932  0.0000
  O1     O1        0.870335973068319    0.104205327963050    0.634668674571707  0.0000
  O3     O3        0.616297600090206    0.878728380136569    0.644766629648484  0.0000
  O1     O1        0.917696577100382    0.760449637338806    0.661862890051901  0.0000
  O3     O3        0.576759979249107    0.206513392614885    0.649369550357783  0.0000
  O1     O1        0.127448161742135    0.857791765777174    0.396883291750522  0.0000
  O3     O3        0.372897387816038    0.096887064036137    0.389150808625032  0.0000
  O1     O1        0.973899290799543    0.963298234202169    0.461493312856057  0.0000
  O3     O3        0.474376574549596    0.975999159193341    0.579401000687303  0.0000
  O1     O1        0.026016506665665    0.973767579684239    0.210111508323206  0.0000
  O1     O1        0.527357280976747    0.004229451824131    0.330461763761830  0.0000
  O1     O1        0.026305006519279    0.016365350427529    0.708182812819454  0.0000
  O3     O3        0.523868719910658    0.994924330367774    0.818916872088653  0.0000
  O1     O1        0.580180940148255    0.218954355245347    0.138774325366492  0.0000
  O3     O3        0.911432643844665    0.743347510549614    0.132849211542122  0.0000
  O1     O1        0.372393442774173    0.071180155336340    0.902923305058417  0.0000
  O1     O1        0.126818935191189    0.841960743495451    0.881130097070563  0.0000
  O1     O1        0.419402792413351    0.732608202664311    0.890341571038296  0.0000
  O3     O3        0.087273224463414    0.201085382913003    0.913201022246130  0.0000
  O1     O1        0.637198430356351    0.882010275032114    0.153463580587228  0.0000
  O1     O1        0.880092993241643    0.101941736878123    0.140313835042404  0.0000
  O1     O1        0.483967608389506    0.943583425959708    0.075602640861993  0.0000
  O1     O1        0.977977327420829    0.950906530057711    0.952779232648547  0.0000
  O1     O1        0.159061175356473    0.515747767155654    0.361692934883797  0.0000
  O3     O3        0.345638828411833    0.428553804234256    0.353928184338257  0.0000
  O1     O1        0.837175907952117    0.452226915328739    0.675176328142844  0.0000
  O1     O1        0.650483869173826    0.530078567322415    0.676734801204471  0.0000
  O3     O3        0.239636039366111    0.205490538116565    0.305762107734029  0.0000
  O1     O1        0.271725696542789    0.743806817229801    0.298972853930269  0.0000
  O1     O1        0.727606190805096    0.217115950426765    0.734514071697407  0.0000
  O1     O1        0.763298217808851    0.766370178575393    0.731677094439004  0.0000
  O3     O3        0.122687431268310    0.327278001605758    0.141736556696198  0.0000
  O1     O1        0.389734833529588    0.619543164175411    0.140801393891487  0.0000
  O1     O1        0.858336677384176    0.221261195262763    0.889368382779347  0.0000
  O1     O1        0.638582451702935    0.744365075063169    0.899185351829103  0.0000
  O3     O3        0.876995581360881    0.615005458328954    0.899669030860839  0.0000
  O1     O1        0.614380274303220    0.351482136616216    0.895468557864810  0.0000
  O1     O1        0.142088693760595    0.732450688008974    0.139924380548256  0.0000
  O3     O3        0.358432589135947    0.219384167925505    0.153431172499980  0.0000
  O1     O1        0.656697895539216    0.527827242528331    0.117136772040088  0.0000
  O3     O3        0.840155731377059    0.450269959802880    0.106730232899520  0.0000
  O1     O1        0.346042441803554    0.418427756104353    0.926991055188468  0.0000
  O3     O3        0.160933551538281    0.491538483111629    0.934571406148234  0.0000
  O1     O1        0.731638265508146    0.211569506299627    0.053126966259859  0.0000
  O3     O3        0.772347298372439    0.748058182576941    0.045025495531809  0.0000
  O3     O3        0.228903234795118    0.194865163543051    0.990086064773737  0.0000
  O1     O1        0.270014984012571    0.733830024531716    0.981545181939095  0.0000
