data_c00692.vasp
_audit_creation_method             Generated by GULP
_audit_author_name                 Salvador R. G. Balestra
_symmetry_space_group_name_H-M     'P 1             '
_symmetry_Int_Tables_number        1

loop_
_symmetry_equiv_pos_site_id
_symmetry_equiv_pos_as_xyz
_cell_length_a                       17.6461
_cell_length_b                        7.8010
_cell_length_c                       10.2078
_cell_angle_alpha                   88.6104
_cell_angle_beta                    90.9745
_cell_angle_gamma                   90.9097

loop_
_atom_site_label
_atom_site_type_symbol
_atom_site_fract_x
_atom_site_fract_y
_atom_site_fract_z
_atom_site_charge
  Ge     Ge        0.052090000000021    0.000000000000000    0.372269999999958  0.0000
  Ge     Ge        0.445653899617276    0.053508763999096    0.411187040843154  0.0000
  Ge     Ge        0.942935564410150    0.065031569520410    0.614604731781993  0.0000
  Ge     Ge        0.555729425873718    0.007049054573862    0.172279502032142  0.0000
  Ge     Ge        0.951803368995120    0.068768515138827    0.112791663755584  0.0000
  Ge     Ge        0.445205521742850    0.080457854897191    0.920266609900197  0.0000
  Ge     Ge        0.055654283736962    0.018736643926560    0.861984231539039  0.0000
  Ge     Ge        0.175565186566575    0.281285700542838    0.296072373434149  0.0000
  Ge     Ge        0.329287166140624    0.760261764668291    0.304317700794463  0.0000
  Ge     Ge        0.846731214015045    0.376859346921221    0.728938171374624  0.0000
  Ge     Ge        0.638691171474918    0.708394901699662    0.732182834706072  0.0000
  Ge     Ge        0.820141852871673    0.781029884760118    0.725789679971790  0.0000
  Ge     Ge        0.665104416121216    0.303965491936041    0.734588255532367  0.0000
  Ge     Ge        0.148639347089582    0.686493848726944    0.303113761678626  0.0000
  Ge     Ge        0.675036544677834    0.293965863235659    0.053223099080391  0.0000
  Ge     Ge        0.825291099887140    0.787345754321453    0.043280471345785  0.0000
  Ge     Ge        0.326913275335094    0.782730382774705    0.990140156264785  0.0000
  Ge     Ge        0.172561916168252    0.310262287606813    0.975694804078000  0.0000
  Ge     Ge        0.646832923509069    0.699015527827373    0.050091082346079  0.0000
  Ge     Ge        0.852604492884299    0.383751535242997    0.048732684961584  0.0000
  Si     Si        0.543593042735024    0.027250127835495    0.667006689185379  0.0000
  Si     Si        0.349882130803040    0.362914097766778    0.289022518146586  0.0000
  Si     Si        0.346564878395154    0.389434517743249    0.977724172727101  0.0000
  Si     Si        0.149141191794022    0.709102331476025    0.991543393283332  0.0000
  O1     O1        0.128926912803302    0.136317852634968    0.393580974629160  0.0000
  O1     O1        0.377181621229369    0.896901864944231    0.405948104120022  0.0000
  O1     O1        0.913936210464297    0.268538274966386    0.645497273617529  0.0000
  O3     O3        0.572255720293450    0.834353684387490    0.649348747340613  0.0000
  O1     O1        0.866684906037486    0.929097646356573    0.629543230252856  0.0000
  O3     O3        0.613625905014757    0.158529303395515    0.642752867169709  0.0000
  O1     O1        0.083775279956984    0.793784705314236    0.392231220235856  0.0000
  O3     O3        0.416963367568883    0.253606162230424    0.352569029739785  0.0000
  O1     O1        0.973657742946624    0.052019652617405    0.454920823981981  0.0000
  O3     O3        0.472162858413447    0.070756158809931    0.575299285835996  0.0000
  O1     O1        0.028367079020625    0.022750376415778    0.207163934569637  0.0000
  O1     O1        0.526013744875456    0.002874306968249    0.331304963224619  0.0000
  O1     O1        0.022941064472466    0.007739892954456    0.702874993560015  0.0000
  O3     O3        0.519064639338473    0.049716282623231    0.817778412671101  0.0000
  O1     O1        0.631214999325195    0.145680119052445    0.152523055430651  0.0000
  O1     O1        0.877409552474346    0.925817298571993    0.135729560280611  0.0000
  O3     O3        0.410585546571538    0.288123594603768    0.905266350971044  0.0000
  O3     O3        0.089521262574220    0.818558948888834    0.907167499521868  0.0000
  O1     O1        0.373462190162317    0.931855150403687    0.895709366249792  0.0000
  O1     O1        0.124543735194529    0.176375946854872    0.873435659097853  0.0000
  O1     O1        0.581396584977341    0.801622012872333    0.138834175070233  0.0000
  O1     O1        0.919538570714358    0.272670899613567    0.137028854206543  0.0000
  O1     O1        0.479047892459524    0.066514780321157    0.077881477765605  0.0000
  O1     O1        0.977926526639263    0.065339258205048    0.950456110988189  0.0000
  O1     O1        0.156212559631111    0.479929225137864    0.356593738000047  0.0000
  O3     O3        0.343460743557415    0.547168208308584    0.353787078291219  0.0000
  O1     O1        0.833782210275969    0.580060210964901    0.664974922380583  0.0000
  O1     O1        0.647530213532173    0.507543304088580    0.671198193355983  0.0000
  O3     O3        0.272666069210304    0.251869166633925    0.305410014075866  0.0000
  O1     O1        0.234063717464394    0.795174754314537    0.311951516562933  0.0000
  O1     O1        0.760755643564035    0.267918884617623    0.725733427579130  0.0000
  O1     O1        0.724529094240593    0.816160519462843    0.727548123488351  0.0000
  O1     O1        0.146352279449613    0.267872629260962    0.134375390831384  0.0000
  O1     O1        0.360642751213499    0.802259393404211    0.148191912787786  0.0000
  O1     O1        0.877830147221297    0.404032787964602    0.886774742271180  0.0000
  O1     O1        0.612902635967296    0.680809055484823    0.892388647099054  0.0000
  O1     O1        0.855105677280851    0.798749269056264    0.883354161083897  0.0000
  O1     O1        0.638870802479030    0.287324465602470    0.895970172126550  0.0000
  O3     O3        0.120605006655971    0.682433530336675    0.139091033097896  0.0000
  O2     O2        0.361722232663825    0.406112087608606    0.134684320869143  0.0000
  O1     O1        0.663282940812302    0.497548975237905    0.112311519398344  0.0000
  O1     O1        0.839464513564014    0.582464007032334    0.107641666584102  0.0000
  O3     O3        0.342321809841790    0.582788972930395    0.924013536058091  0.0000
  O3     O3        0.156648650399786    0.522826523180653    0.930429010039463  0.0000
  O1     O1        0.770447925008186    0.260095045229488    0.049618992779010  0.0000
  O1     O1        0.729641755254035    0.820723337344980    0.046459983381814  0.0000
  O3     O3        0.268853359105747    0.281321164047841    0.960078907978562  0.0000
  O3     O3        0.229867978507206    0.810457382164774    0.992853941733434  0.0000
