data_c00635.vasp
_audit_creation_method             Generated by GULP
_audit_author_name                 Salvador R. G. Balestra
_symmetry_space_group_name_H-M     'P 1             '
_symmetry_Int_Tables_number        1

loop_
_symmetry_equiv_pos_site_id
_symmetry_equiv_pos_as_xyz
_cell_length_a                       17.6223
_cell_length_b                        7.8126
_cell_length_c                       10.1954
_cell_angle_alpha                   88.2949
_cell_angle_beta                    90.4875
_cell_angle_gamma                   91.1067

loop_
_atom_site_label
_atom_site_type_symbol
_atom_site_fract_x
_atom_site_fract_y
_atom_site_fract_z
_atom_site_charge
  Ge     Ge        0.052090000000021    0.000000000000000    0.372269999999958  0.0000
  Ge     Ge        0.442964306699392    0.052877686469277    0.382151577545705  0.0000
  Ge     Ge        0.944355509560493    0.080740278859866    0.617453591448841  0.0000
  Ge     Ge        0.548161184613716    0.029185470995286    0.640420730037402  0.0000
  Ge     Ge        0.555561270935906    0.013304272556308    0.140492323493077  0.0000
  Ge     Ge        0.047951273493968    0.024707958737280    0.876795965444029  0.0000
  Ge     Ge        0.174502574930183    0.287300793478308    0.260895387796379  0.0000
  Ge     Ge        0.327189670214116    0.759921728594435    0.274798532658730  0.0000
  Ge     Ge        0.849586365422666    0.394917674477047    0.690853009751749  0.0000
  Ge     Ge        0.822550795137249    0.795080193943466    0.696137928603644  0.0000
  Ge     Ge        0.669017130330625    0.318727736095907    0.706519603505531  0.0000
  Ge     Ge        0.145114144970605    0.687655397206311    0.266185607996335  0.0000
  Ge     Ge        0.675528132355512    0.301886964943507    0.023881507604836  0.0000
  Ge     Ge        0.830361371082972    0.786812689549053    0.016027790571185  0.0000
  Ge     Ge        0.351963234310898    0.388849233974611    0.945475280789944  0.0000
  Ge     Ge        0.152580035389845    0.714675537219390    0.946839956151013  0.0000
  Ge     Ge        0.333450704349540    0.792449893772127    0.959202590215590  0.0000
  Ge     Ge        0.173776726580407    0.310144390183589    0.940380417150960  0.0000
  Ge     Ge        0.650197150688828    0.707066950986275    0.020848017422351  0.0000
  Ge     Ge        0.856745276557481    0.381568333621357    0.010165434168121  0.0000
  Si     Si        0.948265233417348    0.068551746890734    0.126300864147916  0.0000
  Si     Si        0.452084061669542    0.084257972917321    0.893796977103363  0.0000
  Si     Si        0.646746147799043    0.715390117568240    0.707571952456997  0.0000
  Si     Si        0.350353696816240    0.367080714829721    0.260744314688388  0.0000
  O1     O1        0.131973510385944    0.124231573284480    0.348423134388571  0.0000
  O1     O1        0.373396240319682    0.898362868230338    0.376245469455323  0.0000
  O1     O1        0.911790667555000    0.285041604783896    0.596941224943682  0.0000
  O3     O3        0.585279966116929    0.825998525664135    0.627422283125520  0.0000
  O1     O1        0.868200295799180    0.942352308852417    0.597191499649683  0.0000
  O1     O1        0.616860923786157    0.184264300747406    0.610467760726768  0.0000
  O1     O1        0.077078890873458    0.792379942639586    0.351217444310874  0.0000
  O3     O3        0.414477399281121    0.255306554810839    0.331315572561789  0.0000
  O1     O1        0.021844099884023    0.030000179418630    0.529850580727840  0.0000
  O1     O1        0.470633790311162    0.059463477191626    0.544463439080495  0.0000
  O3     O3        0.974697279736787    0.061126370705238    0.277450191926003  0.0000
  O1     O1        0.523663477094934    0.004754463656869    0.298691174079799  0.0000
  O1     O1        0.970862588154644    0.058777823047260    0.781437275527515  0.0000
  O3     O3        0.522615737126328    0.047766843212903    0.804023004936385  0.0000
  O1     O1        0.631665251435041    0.151849928479068    0.124046696805761  0.0000
  O3     O3        0.877637291995256    0.938728743494791    0.106264133581180  0.0000
  O3     O3        0.420448025046357    0.275108029822028    0.867648745593934  0.0000
  O1     O1        0.089366303468365    0.830287104117143    0.854580264250035  0.0000
  O3     O3        0.384505230140636    0.945979981188257    0.870785724180962  0.0000
  O1     O1        0.117387020565319    0.179536223833762    0.849155989280629  0.0000
  O1     O1        0.581639759672613    0.810021927886643    0.102017253932648  0.0000
  O3     O3        0.925420026602569    0.262870159680197    0.090777914484954  0.0000
  O3     O3        0.478769366820211    0.076501509683690    0.045422361921846  0.0000
  O3     O3        0.019762527042271    0.016711702307660    0.040485659523051  0.0000
  O1     O1        0.153081291494403    0.481010552096346    0.325757479930775  0.0000
  O3     O3        0.340333942154961    0.548452985765654    0.328698345838350  0.0000
  O1     O1        0.838550486047962    0.598340424581827    0.630552070353585  0.0000
  O3     O3        0.657394304870354    0.529877764415876    0.648989603040354  0.0000
  O3     O3        0.271761855527866    0.258059984277366    0.265553883457771  0.0000
  O1     O1        0.231526644202402    0.793595491415506    0.276206446970898  0.0000
  O1     O1        0.764395481903826    0.282269362339097    0.697156486762420  0.0000
  O3     O3        0.725770535823612    0.824719413912076    0.703980204946048  0.0000
  O1     O1        0.144813588393841    0.284420329193554    0.100608202026251  0.0000
  O1     O1        0.362883401824212    0.798184206891680    0.120322342144837  0.0000
  O1     O1        0.883018363957842    0.409320071672822    0.849491862077087  0.0000
  O3     O3        0.622767745723699    0.686669200924604    0.858411821852232  0.0000
  O1     O1        0.857003417467605    0.803183935765632    0.854549490176135  0.0000
  O1     O1        0.640830465159483    0.288574102019929    0.866503290094348  0.0000
  O1     O1        0.119644317117157    0.680612876747890    0.103939106848272  0.0000
  O3     O3        0.370948604664952    0.414441787280893    0.110932656824283  0.0000
  O1     O1        0.661338125799054    0.503232560224423    0.082791536162714  0.0000
  O1     O1        0.849240101686661    0.581756080853194    0.073796577645532  0.0000
  O1     O1        0.347173946376122    0.596153284078258    0.888922232329521  0.0000
  O1     O1        0.165322088710940    0.518615661399313    0.882539013819135  0.0000
  O1     O1        0.771723893642979    0.271669249475088    0.019638424023630  0.0000
  O1     O1        0.734810139204308    0.819850697599554    0.029028844261126  0.0000
  O1     O1        0.269031877177080    0.271962844316437    0.930303510277700  0.0000
  O1     O1        0.237660554588696    0.827846429966109    0.955060766525600  0.0000
