data_c00689.vasp
_audit_creation_method             Generated by GULP
_audit_author_name                 Salvador R. G. Balestra
_symmetry_space_group_name_H-M     'P 1             '
_symmetry_Int_Tables_number        1

loop_
_symmetry_equiv_pos_site_id
_symmetry_equiv_pos_as_xyz
_cell_length_a                       17.5176
_cell_length_b                        7.8615
_cell_length_c                       10.1432
_cell_angle_alpha                   89.0408
_cell_angle_beta                    91.7201
_cell_angle_gamma                   87.1681

loop_
_atom_site_label
_atom_site_type_symbol
_atom_site_fract_x
_atom_site_fract_y
_atom_site_fract_z
_atom_site_charge
  Ge     Ge        0.052090000000021    0.000000000000000    0.372269999999958  0.0000
  Ge     Ge        0.451279411620147    0.948164433151999    0.400475507627380  0.0000
  Ge     Ge        0.936033802811302    0.964007807506288    0.608401033242405  0.0000
  Ge     Ge        0.562436498803903    0.006041230219970    0.169717024441475  0.0000
  Ge     Ge        0.948716101890120    0.938838412973446    0.113885175000112  0.0000
  Ge     Ge        0.443590105584196    0.957545731951157    0.921984443764092  0.0000
  Ge     Ge        0.047948736776454    0.013471975858480    0.860861458185030  0.0000
  Ge     Ge        0.154170098729942    0.305662557267541    0.307160986930622  0.0000
  Ge     Ge        0.359496977783647    0.632028269780208    0.297256639411833  0.0000
  Ge     Ge        0.815948518655425    0.254570243484269    0.722539171394063  0.0000
  Ge     Ge        0.657636155780862    0.735554099477314    0.732864675818380  0.0000
  Ge     Ge        0.840509639849437    0.655676639970952    0.725681272096351  0.0000
  Ge     Ge        0.632106365846766    0.334050656969814    0.731935509735585  0.0000
  Ge     Ge        0.173440460180800    0.708141724872243    0.304175958334722  0.0000
  Ge     Ge        0.641711796350580    0.329756019034854    0.048043800494269  0.0000
  Ge     Ge        0.850986785310416    0.630492569612949    0.045576194259566  0.0000
  Ge     Ge        0.166813804936404    0.720272829732465    0.985890456005469  0.0000
  Ge     Ge        0.354682131798796    0.633205219877428    0.983459176792693  0.0000
  Ge     Ge        0.140803628087561    0.322350038372697    0.976375529160266  0.0000
  Ge     Ge        0.824895578773075    0.235352781373984    0.040499069617640  0.0000
  Si     Si        0.535739506109011    0.031329505952618    0.662105175053560  0.0000
  Si     Si        0.328992564491942    0.247488763111110    0.287378360220956  0.0000
  Si     Si        0.317783708614567    0.259081589016006    0.971568763187563  0.0000
  Si     Si        0.671593292406065    0.720125851987354    0.044561636169336  0.0000
  O1     O1        0.089996650709322    0.194771178230023    0.393994622177570  0.0000
  O1     O1        0.419941356611188    0.746491184575492    0.395249377350368  0.0000
  O1     O1        0.861152051375448    0.109984468460046    0.623497098804265  0.0000
  O3     O3        0.602592561884285    0.885434550961541    0.642484135050021  0.0000
  O1     O1        0.905114310789303    0.764164735179232    0.638366616330430  0.0000
  O3     O3        0.568726119515977    0.216263473734458    0.640704586129886  0.0000
  O1     O1        0.125268076856344    0.849093936439791    0.402710339032810  0.0000
  O3     O3        0.385717928552549    0.087593561943629    0.317471902664495  0.0000
  O1     O1        0.968898357488425    0.970223408702601    0.449821434522881  0.0000
  O3     O3        0.464276957508112    0.003698805698338    0.564542305285318  0.0000
  O1     O1        0.026318064738278    0.983113134901417    0.206360743819336  0.0000
  O1     O1        0.537728321932164    0.971777541230301    0.329557935606576  0.0000
  O1     O1        0.016783898108016    0.009789735436615    0.699106895879222  0.0000
  O3     O3        0.510667573519256    0.015933106547441    0.813334991063275  0.0000
  O1     O1        0.584997833893220    0.214942359912775    0.146961565468507  0.0000
  O1     O1        0.913748906140425    0.739728995902329    0.138971252544436  0.0000
  O3     O3        0.364609538948214    0.100135100010896    0.918058399015256  0.0000
  O1     O1        0.129346126026423    0.885662629617717    0.889843359039701  0.0000
  O1     O1        0.410093273399050    0.760764208695259    0.890160298597359  0.0000
  O1     O1        0.069855359129356    0.218633841954599    0.898170199256642  0.0000
  O3     O3        0.638842841998098    0.868305507198632    0.135336332599290  0.0000
  O1     O1        0.872767955728230    0.082794151407069    0.134670219009777  0.0000
  O1     O1        0.482598951781795    0.961340318590239    0.077780711443060  0.0000
  O1     O1        0.973834305209335    0.945268333154670    0.950501697473601  0.0000
  O1     O1        0.156566858309498    0.507295262615336    0.363219119480336  0.0000
  O3     O3        0.356313456652383    0.420983294393045    0.352510572797939  0.0000
  O1     O1        0.827131863833546    0.457626345715843    0.662688049209717  0.0000
  O1     O1        0.639121846643224    0.537069021612993    0.672273166009185  0.0000
  O3     O3        0.244905508131605    0.205418259774298    0.331178484189420  0.0000
  O1     O1        0.270093335516640    0.730778948377138    0.305807262195784  0.0000
  O1     O1        0.719774748921710    0.225640833184974    0.729970174034511  0.0000
  O1     O1        0.752972936363254    0.768489974007184    0.720894842060571  0.0000
  O1     O1        0.128031799375188    0.305465755870339    0.142806993837657  0.0000
  O1     O1        0.393931858952204    0.637120059189455    0.141224120998568  0.0000
  O1     O1        0.854802414850194    0.227850118993510    0.879876254100262  0.0000
  O3     O3        0.633027299687690    0.738011031890632    0.897993853669962  0.0000
  O1     O1        0.876591928421590    0.624214051687250    0.883408129903412  0.0000
  O1     O1        0.602309488967322    0.345078487501701    0.891692716109043  0.0000
  O1     O1        0.136654337634825    0.734469051990045    0.145462784670503  0.0000
  O2     O2        0.321860658155384    0.294957773882141    0.129936001942009  0.0000
  O3     O3        0.654520067227529    0.533923550331342    0.104469471148315  0.0000
  O1     O1        0.845513355978127    0.429855934258080    0.106788331391164  0.0000
  O3     O3        0.349989758946752    0.434223697911303    0.914044501272611  0.0000
  O1     O1        0.136425858763706    0.531252041104521    0.925565754647941  0.0000
  O1     O1        0.728191894068101    0.218412020951243    0.040774645565788  0.0000
  O3     O3        0.761643985762197    0.737712264796299    0.035071895116296  0.0000
  O3     O3        0.229949766102630    0.236466375860851    0.933340559818824  0.0000
  O1     O1        0.264097421850925    0.723659149384829    0.992891547424426  0.0000
