data_c00676.vasp
_audit_creation_method             Generated by GULP
_audit_author_name                 Salvador R. G. Balestra
_symmetry_space_group_name_H-M     'P 1             '
_symmetry_Int_Tables_number        1

loop_
_symmetry_equiv_pos_site_id
_symmetry_equiv_pos_as_xyz
_cell_length_a                       16.9367
_cell_length_b                        7.8770
_cell_length_c                       10.6013
_cell_angle_alpha                   96.0329
_cell_angle_beta                    91.4292
_cell_angle_gamma                   90.3850

loop_
_atom_site_label
_atom_site_type_symbol
_atom_site_fract_x
_atom_site_fract_y
_atom_site_fract_z
_atom_site_charge
  Ge     Ge        0.052090000000021    0.000000000000000    0.372269999999958  0.0000
  Ge     Ge        0.464571234240627    0.970379546155312    0.361931737192950  0.0000
  Ge     Ge        0.957827092166353    0.943127378594523    0.622325020506022  0.0000
  Ge     Ge        0.577169504070036    0.963998315263289    0.129615661007452  0.0000
  Ge     Ge        0.943323988793972    0.994202870603210    0.121517288180514  0.0000
  Ge     Ge        0.447870412699926    0.864328771834018    0.890709857832978  0.0000
  Ge     Ge        0.058049642780766    0.880875545568224    0.888789262166817  0.0000
  Ge     Ge        0.153932613827202    0.294331341120291    0.289288784241924  0.0000
  Ge     Ge        0.355932915309093    0.646604908598888    0.252742692804540  0.0000
  Ge     Ge        0.846093976618953    0.260919717478118    0.684417052612323  0.0000
  Ge     Ge        0.645385771770623    0.618474850596945    0.720345783878163  0.0000
  Ge     Ge        0.833107985072092    0.666841617983200    0.690885984165196  0.0000
  Ge     Ge        0.663063429480422    0.194278160207754    0.714124061477681  0.0000
  Ge     Ge        0.173430449354418    0.697827530453719    0.242177048764258  0.0000
  Ge     Ge        0.350334954853810    0.262903210550114    0.300936505119370  0.0000
  Ge     Ge        0.842828657200300    0.697193676360032    0.991563955886533  0.0000
  Ge     Ge        0.344939616385681    0.162840551204461    0.002200106824365  0.0000
  Ge     Ge        0.168530796557238    0.577225927789459    0.933644750786318  0.0000
  Ge     Ge        0.351528177883460    0.527934554884864    0.938689351378726  0.0000
  Ge     Ge        0.864831189173641    0.314827652846320    0.005078777282576  0.0000
  Si     Si        0.535354665035858    0.898639196077173    0.630084423829787  0.0000
  Si     Si        0.679179594206408    0.247159825569683    0.017520022560240  0.0000
  Si     Si        0.154460014671133    0.206515212381130    0.001036535380346  0.0000
  Si     Si        0.653980458309532    0.630436655147438    0.004743730128768  0.0000
  O1     O1        0.094268092339053    0.201118244332924    0.391545577237125  0.0000
  O1     O1        0.426147810517335    0.800501613884874    0.260011484849224  0.0000
  O1     O1        0.916043133555234    0.139527442202056    0.607137273457244  0.0000
  O3     O3        0.578484207766641    0.718236740706894    0.628745780003968  0.0000
  O1     O1        0.885331603541078    0.788722754494210    0.596654534736453  0.0000
  O3     O3        0.596709695858604    0.057266608165314    0.630536979794261  0.0000
  O1     O1        0.120124805560022    0.870369872850010    0.296365333227169  0.0000
  O1     O1        0.403059080035399    0.137538528569037    0.397209408219140  0.0000
  O1     O1        0.029652892973467    0.920946866411216    0.511101741083391  0.0000
  O3     O3        0.481350202288360    0.889145557028507    0.505132437498226  0.0000
  O1     O1        0.966924426269679    0.002236142324814    0.278274959067948  0.0000
  O1     O1        0.548311833181317    0.011878496683441    0.282392129999999  0.0000
  O1     O1        0.997356319242976    0.942437487327126    0.771696923509165  0.0000
  O3     O3        0.482012550689342    0.929233932822842    0.753330306302783  0.0000
  O3     O3        0.642390156377600    0.128116512971503    0.112623599395548  0.0000
  O1     O1        0.855199469775147    0.880408454716124    0.088676854586387  0.0000
  O1     O1        0.358242332284258    0.968069312864296    0.922203975603965  0.0000
  O1     O1        0.104705957136393    0.692244372817237    0.845898223702032  0.0000
  O1     O1        0.425805763888111    0.652764654055660    0.888014217733943  0.0000
  O3     O3        0.131512318290132    0.039860681472078    0.911253333842565  0.0000
  O3     O3        0.627507466395260    0.767998178762828    0.115180738908199  0.0000
  O1     O1        0.934341191378377    0.193104429305354    0.071505719048516  0.0000
  O1     O1        0.502847556391604    0.957700076583136    0.018556776558106  0.0000
  O1     O1        0.005688716178792    0.869316433986032    0.024283481605292  0.0000
  O1     O1        0.139443423522761    0.509086408958146    0.291159648569357  0.0000
  O1     O1        0.379259223289433    0.472271242987353    0.331437039491018  0.0000
  O1     O1        0.839998538330153    0.456785814104559    0.629376091980645  0.0000
  O1     O1        0.646441853876070    0.402765754478471    0.684663958210336  0.0000
  O1     O1        0.250662895775665    0.250753246004326    0.324095796721967  0.0000
  O1     O1        0.267926820855324    0.732209394034186    0.303617230770213  0.0000
  O1     O1        0.757362628942324    0.151135959678190    0.667892644979507  0.0000
  O1     O1        0.734098376444843    0.713942781963443    0.696681677800972  0.0000
  O3     O3        0.119382069168911    0.198134817102837    0.140716535844457  0.0000
  O1     O1        0.335970003266487    0.557843153894928    0.099753182797944  0.0000
  O1     O1        0.869246967417164    0.298610356269727    0.843810263235143  0.0000
  O3     O3        0.607915268036220    0.665168207165473    0.874044436121092  0.0000
  O1     O1        0.875747931286902    0.712281213159070    0.840665349335974  0.0000
  O3     O3        0.658422015395862    0.168902812209303    0.873853769963731  0.0000
  O1     O1        0.171918618609465    0.694224000302809    0.080038101517944  0.0000
  O1     O1        0.380741100063743    0.168874840008760    0.155813896596339  0.0000
  O2     O2        0.640368446335291    0.437127521806077    0.040011099812592  0.0000
  O1     O1        0.882816927644320    0.525245550579909    0.057097232613518  0.0000
  O1     O1        0.381709396791685    0.319765219796523    0.916505530675589  0.0000
  O3     O3        0.126309025057155    0.377280148036341    0.941501725943775  0.0000
  O3     O3        0.771947153439406    0.251351715175844    0.047664536987813  0.0000
  O3     O3        0.744374334263969    0.635607666854867    0.960983265414326  0.0000
  O3     O3        0.248278276520769    0.232697896995974    0.025487262055495  0.0000
  O1     O1        0.260722364455766    0.563394732338228    0.868704212667299  0.0000
