data_c00666.vasp
_audit_creation_method             Generated by GULP
_audit_author_name                 Salvador R. G. Balestra
_symmetry_space_group_name_H-M     'P 1             '
_symmetry_Int_Tables_number        1

loop_
_symmetry_equiv_pos_site_id
_symmetry_equiv_pos_as_xyz
_cell_length_a                       17.4707
_cell_length_b                        7.7138
_cell_length_c                       10.5677
_cell_angle_alpha                   91.9690
_cell_angle_beta                    89.2420
_cell_angle_gamma                   87.9374

loop_
_atom_site_label
_atom_site_type_symbol
_atom_site_fract_x
_atom_site_fract_y
_atom_site_fract_z
_atom_site_charge
  Ge     Ge        0.052090000000021    0.000000000000000    0.372269999999958  0.0000
  Ge     Ge        0.468462503949704    0.998953199635329    0.397573306277459  0.0000
  Ge     Ge        0.973240754248532    0.940112132169440    0.640829126344894  0.0000
  Ge     Ge        0.575716894580355    0.996832005344416    0.139050916892958  0.0000
  Ge     Ge        0.968353147319687    0.982894204606995    0.099132390739095  0.0000
  Ge     Ge        0.471355149588704    0.969410415265264    0.895238674436495  0.0000
  Ge     Ge        0.093548950320877    0.955613517067481    0.867163615883654  0.0000
  Ge     Ge        0.186790798779439    0.249146152911325    0.298226258014484  0.0000
  Ge     Ge        0.341013494399523    0.734166429498272    0.311244338129875  0.0000
  Ge     Ge        0.844771081372559    0.234248823931893    0.741274147135243  0.0000
  Ge     Ge        0.695336414278450    0.700688033535152    0.743619710403118  0.0000
  Ge     Ge        0.879412887305862    0.623328729746359    0.723091132586541  0.0000
  Ge     Ge        0.667434175629929    0.283645177358234    0.749114379788938  0.0000
  Ge     Ge        0.160386417000416    0.672205766935751    0.291447852631796  0.0000
  Ge     Ge        0.366767345851934    0.316252882479861    0.316677173494126  0.0000
  Ge     Ge        0.666242155391674    0.314640578638740    0.052223755930776  0.0000
  Ge     Ge        0.883962322143341    0.638236013995347    0.037279211873123  0.0000
  Ge     Ge        0.352322335392016    0.701942898711933    0.005782935328127  0.0000
  Ge     Ge        0.203234008525471    0.231544806671633    0.994054209393770  0.0000
  Ge     Ge        0.700246774034921    0.719885254935173    0.048459194613343  0.0000
  Si     Si        0.571451255331022    0.982091753084878    0.643954898266747  0.0000
  Si     Si        0.381044059296145    0.297571613621150    0.015339827916401  0.0000
  Si     Si        0.173459575226612    0.640936517876767    0.993043418573602  0.0000
  Si     Si        0.840414985661176    0.266849702795712    0.043903661403327  0.0000
  O1     O1        0.129085343581500    0.131164567009420    0.390860066386411  0.0000
  O1     O1        0.391263566721125    0.866818052092258    0.409029038312132  0.0000
  O1     O1        0.897717339497387    0.046501933726969    0.723181165354652  0.0000
  O3     O3        0.643310531595702    0.849008463972065    0.657908506193992  0.0000
  O1     O1        0.944426852879882    0.730836444356699    0.634283137835788  0.0000
  O3     O3        0.597596914527001    0.177594889097207    0.664532739562214  0.0000
  O1     O1        0.087140588922189    0.788055198509385    0.367090187784625  0.0000
  O1     O1        0.431952409836149    0.209022952208782    0.407786361606548  0.0000
  O1     O1        0.986747831603006    0.022925874852334    0.494803910134342  0.0000
  O3     O3        0.538974461229745    0.956277819791016    0.503826866507668  0.0000
  O1     O1        0.006110034055710    0.058443311748422    0.237139288689158  0.0000
  O1     O1        0.508451879613261    0.957464354877432    0.250164226838331  0.0000
  O1     O1        0.059023739155377    0.960142760489418    0.717386247368867  0.0000
  O3     O3        0.502311486270342    0.945677268388338    0.740656255789477  0.0000
  O1     O1        0.601403662290609    0.209617095550803    0.143160907050103  0.0000
  O1     O1        0.948977365097942    0.767373613012989    0.111057329011982  0.0000
  O3     O3        0.445661541320176    0.183539382387207    0.939414725340626  0.0000
  O3     O3        0.118804851752472    0.741974979311632    0.897806429557184  0.0000
  O1     O1        0.395212980824968    0.835282615710496    0.904820521788839  0.0000
  O1     O1        0.169446160867350    0.090143916693558    0.883024512341515  0.0000
  O1     O1        0.659769886367525    0.874142516168031    0.149510405295411  0.0000
  O3     O3        0.879502717840853    0.082086378650896    0.067878268087283  0.0000
  O1     O1        0.541733360565827    0.912275910762751    0.996375894730420  0.0000
  O1     O1        0.024762716636552    0.033465859262427    0.973449625170956  0.0000
  O1     O1        0.172128202014030    0.466230064363697    0.341179635181613  0.0000
  O1     O1        0.350436539960861    0.525639471083686    0.366138791305015  0.0000
  O1     O1        0.895587947812273    0.404408759465635    0.689353980793188  0.0000
  O1     O1        0.651980940991212    0.504247838235953    0.742929680885312  0.0000
  O1     O1        0.282775576675808    0.204672836330363    0.316693302656164  0.0000
  O1     O1        0.244016883096548    0.782338852415219    0.309443445435786  0.0000
  O1     O1        0.754750393968157    0.221000255786831    0.680118271325143  0.0000
  O1     O1        0.786156255515170    0.668361989889751    0.680957691991859  0.0000
  O1     O1        0.164325696081280    0.205476135104334    0.141554322654606  0.0000
  O1     O1        0.377834284047796    0.742132178385923    0.159358389489983  0.0000
  O3     O3        0.818679386425827    0.301281568256429    0.896332439169702  0.0000
  O1     O1        0.705042267586250    0.784553693942400    0.893965113352081  0.0000
  O1     O1        0.896451074219100    0.678976240242899    0.879312039035980  0.0000
  O1     O1        0.656717214335832    0.221168001783033    0.902652041595749  0.0000
  O3     O3        0.135599279218620    0.661044680021314    0.132499960107785  0.0000
  O3     O3        0.402992762869717    0.313359598850832    0.162258892349864  0.0000
  O1     O1        0.648280067839979    0.532777665145389    0.052901528589348  0.0000
  O3     O3        0.898694193954779    0.420156210740402    0.075801982693086  0.0000
  O3     O3        0.373450504469418    0.487156033058320    0.959177712694651  0.0000
  O3     O3        0.183928362476884    0.442290500475024    0.947434548109850  0.0000
  O3     O3        0.758307928874943    0.280285701194249    0.112973063855431  0.0000
  O1     O1        0.792653747157662    0.679072944513249    0.093216046283666  0.0000
  O3     O3        0.301062079958942    0.199890429343399    0.005211982401277  0.0000
  O3     O3        0.254116894759786    0.734769152059261    0.000166034719817  0.0000
