data_c00648.vasp
_audit_creation_method             Generated by GULP
_audit_author_name                 Salvador R. G. Balestra
_symmetry_space_group_name_H-M     'P 1             '
_symmetry_Int_Tables_number        1

loop_
_symmetry_equiv_pos_site_id
_symmetry_equiv_pos_as_xyz
_cell_length_a                       17.5110
_cell_length_b                        7.8218
_cell_length_c                       10.3441
_cell_angle_alpha                   89.5310
_cell_angle_beta                    90.3474
_cell_angle_gamma                   88.4193

loop_
_atom_site_label
_atom_site_type_symbol
_atom_site_fract_x
_atom_site_fract_y
_atom_site_fract_z
_atom_site_charge
  Ge     Ge        0.052090000000021    0.000000000000000    0.372269999999958  0.0000
  Ge     Ge        0.446831752471501    0.944203822653539    0.382225245812135  0.0000
  Ge     Ge        0.948090220501973    0.951867304042204    0.631476406880182  0.0000
  Ge     Ge        0.547910334585686    0.009173712769324    0.638527938281091  0.0000
  Ge     Ge        0.554921361703523    0.006012428966448    0.135724735743840  0.0000
  Ge     Ge        0.143062713740543    0.317329493974742    0.263042118306012  0.0000
  Ge     Ge        0.356352073070200    0.629805180478933    0.265700961086866  0.0000
  Ge     Ge        0.828615522776757    0.246481525600850    0.702295424562917  0.0000
  Ge     Ge        0.673421878450664    0.724309254323239    0.710667047646841  0.0000
  Ge     Ge        0.646874419767521    0.324612481212917    0.702959181934357  0.0000
  Ge     Ge        0.174950559746091    0.716327072905647    0.266104030807253  0.0000
  Ge     Ge        0.324744154962499    0.230317953371121    0.268804458794106  0.0000
  Ge     Ge        0.651183048536231    0.316327683940342    0.020103629739269  0.0000
  Ge     Ge        0.858433290546527    0.638295121177487    0.013535632892247  0.0000
  Ge     Ge        0.331569099573532    0.235838402845114    0.956042246549948  0.0000
  Ge     Ge        0.169473174802741    0.714501547173569    0.952326651172264  0.0000
  Ge     Ge        0.352461322899881    0.638096434638693    0.950794935195688  0.0000
  Ge     Ge        0.148288612976933    0.312601530046959    0.949348453264140  0.0000
  Ge     Ge        0.677029218643580    0.719730760587814    0.025060638222087  0.0000
  Ge     Ge        0.833606755833471    0.232889794049748    0.016629211050843  0.0000
  Si     Si        0.950990243992799    0.943991766714373    0.123035286324711  0.0000
  Si     Si        0.450872901454153    0.945750174147094    0.890428856570372  0.0000
  Si     Si        0.050545447626643    0.006373941178879    0.882053747213803  0.0000
  Si     Si        0.851105808999711    0.641755930073239    0.706603345407026  0.0000
  O1     O1        0.075364407486533    0.208617114996046    0.346831532776623  0.0000
  O1     O1        0.424768898957227    0.736816942792931    0.348896240668716  0.0000
  O1     O1        0.879486182768315    0.109676844344358    0.605145955064063  0.0000
  O1     O1        0.626219105055215    0.874176491851009    0.618190978378598  0.0000
  O3     O3        0.909245590389569    0.750738816865536    0.622517938725632  0.0000
  O1     O1        0.578897884937819    0.213815443768376    0.620664413332138  0.0000
  O1     O1        0.131640770162438    0.871006717878827    0.356751324302383  0.0000
  O1     O1        0.367749772895101    0.074758449085532    0.361999729424117  0.0000
  O1     O1        0.021632918193955    0.972227742666532    0.528076374443613  0.0000
  O1     O1        0.473591892084886    0.960081307309670    0.542215951037307  0.0000
  O3     O3        0.978820262282059    0.941495357078860    0.270278567098086  0.0000
  O1     O1        0.523230107708896    0.006593577441548    0.292194068185297  0.0000
  O3     O3        0.980452268691961    0.974762553071902    0.789180751739920  0.0000
  O3     O3        0.521402095288187    0.982323383472735    0.799766701961334  0.0000
  O1     O1        0.582736427817911    0.209836450169294    0.102438228622351  0.0000
  O3     O3        0.928799016831252    0.751677655834240    0.088325208269805  0.0000
  O3     O3        0.383560241003057    0.088297831342789    0.867546618609080  0.0000
  O3     O3        0.117605650521729    0.864328235118316    0.862573847108205  0.0000
  O3     O3        0.416629143733260    0.759577772791026    0.865594679153921  0.0000
  O3     O3        0.085377959857480    0.192405942334102    0.860466483547670  0.0000
  O1     O1        0.631177942034494    0.865707270691576    0.120963213996146  0.0000
  O3     O3        0.879769699415136    0.076095609338382    0.108191501743843  0.0000
  O3     O3        0.478783208404812    0.948319854089655    0.039589289526831  0.0000
  O2     O2        0.020935546246969    0.001608932616051    0.031411529056824  0.0000
  O1     O1        0.156972058070889    0.515157597966172    0.327057724313135  0.0000
  O1     O1        0.342806353177668    0.430345974511580    0.329664198568645  0.0000
  O3     O3        0.838882355007950    0.456277006727156    0.647134151236432  0.0000
  O1     O1        0.654813061744948    0.527719916825421    0.644939371285481  0.0000
  O1     O1        0.228364989071882    0.201468689497140    0.265089766401637  0.0000
  O1     O1        0.271424227434685    0.746256517914706    0.267212025980392  0.0000
  O1     O1        0.732696263761713    0.210882303509320    0.696110994901745  0.0000
  O3     O3        0.771320684811580    0.750170803242009    0.712530892312774  0.0000
  O1     O1        0.116164702053283    0.340972848260133    0.104111204233553  0.0000
  O1     O1        0.382942248129489    0.607006521911744    0.107408928792390  0.0000
  O1     O1        0.860911713764377    0.218988340435213    0.858284755455398  0.0000
  O1     O1        0.644001046355434    0.737892897335770    0.868682700003516  0.0000
  O3     O3        0.881879214948711    0.613635057166100    0.852291200503900  0.0000
  O1     O1        0.621916647407252    0.341401160863149    0.862652449489891  0.0000
  O1     O1        0.140795820167858    0.725344833223200    0.110051851043830  0.0000
  O1     O1        0.360975281013032    0.221379673095576    0.114512247858310  0.0000
  O1     O1        0.662885014997598    0.515895590972598    0.082812970001954  0.0000
  O1     O1        0.852471828903345    0.434457669369980    0.074262774950372  0.0000
  O1     O1        0.344993733020452    0.436488867207232    0.889912719351075  0.0000
  O1     O1        0.156547937598526    0.514545181013962    0.887137766148089  0.0000
  O1     O1        0.736999852746879    0.203211811505674    0.024967538771664  0.0000
  O1     O1        0.773820309849518    0.750464934220768    0.027892513213036  0.0000
  O1     O1        0.235057684798487    0.203478925723348    0.951833050553882  0.0000
  O1     O1        0.265958228714770    0.747885925209061    0.948491730988273  0.0000
