data_c00624.vasp
_audit_creation_method             Generated by GULP
_audit_author_name                 Salvador R. G. Balestra
_symmetry_space_group_name_H-M     'P 1             '
_symmetry_Int_Tables_number        1

loop_
_symmetry_equiv_pos_site_id
_symmetry_equiv_pos_as_xyz
_cell_length_a                       17.6684
_cell_length_b                        7.8066
_cell_length_c                       10.1778
_cell_angle_alpha                   92.3042
_cell_angle_beta                    89.6353
_cell_angle_gamma                   90.8852

loop_
_atom_site_label
_atom_site_type_symbol
_atom_site_fract_x
_atom_site_fract_y
_atom_site_fract_z
_atom_site_charge
  Ge     Ge        0.052090000000021    0.000000000000000    0.372269999999958  0.0000
  Ge     Ge        0.444172182896809    0.061035773897265    0.399504283970054  0.0000
  Ge     Ge        0.949836699241705    0.025228902777050    0.632087754602222  0.0000
  Ge     Ge        0.547607411421513    0.983643575043651    0.648391589842638  0.0000
  Ge     Ge        0.555526772570892    0.003277715226978    0.150028372138499  0.0000
  Ge     Ge        0.045951572750828    0.975709732339304    0.901879864357822  0.0000
  Ge     Ge        0.167891376865344    0.298426187378222    0.281490807420364  0.0000
  Ge     Ge        0.320624611494308    0.773974876943232    0.286149716692743  0.0000
  Ge     Ge        0.852491431158066    0.345292562886763    0.712688237055213  0.0000
  Ge     Ge        0.647332617520673    0.673073669190145    0.716073553866257  0.0000
  Ge     Ge        0.825688365886102    0.751795044713299    0.712299718353386  0.0000
  Ge     Ge        0.672822344607861    0.267203294923573    0.718138331899845  0.0000
  Ge     Ge        0.351420401422308    0.372298974627879    0.289786609007720  0.0000
  Ge     Ge        0.671267369719700    0.293707649708092    0.035876532274152  0.0000
  Ge     Ge        0.826595198698223    0.768378791499192    0.032232725590359  0.0000
  Ge     Ge        0.351728923510920    0.344911747223958    0.971638877797495  0.0000
  Ge     Ge        0.155364896519430    0.665343954464003    0.948191353065745  0.0000
  Ge     Ge        0.329019942817574    0.750930129549084    0.957966673270091  0.0000
  Ge     Ge        0.170559446119596    0.266943794219117    0.966489379480464  0.0000
  Ge     Ge        0.852654161704163    0.364226913710963    0.032774163999668  0.0000
  Si     Si        0.939890785336328    0.058228322709226    0.148614235609341  0.0000
  Si     Si        0.451076817269414    0.035607269021181    0.904592037935368  0.0000
  Si     Si        0.150183822339455    0.687010553892520    0.269307999523163  0.0000
  Si     Si        0.649839446887646    0.691251132973359    0.029619375331160  0.0000
  O1     O1        0.120530352547481    0.155135241590827    0.377367070929867  0.0000
  O1     O1        0.364391794086473    0.939564369585083    0.368640423686671  0.0000
  O1     O1        0.916964598827166    0.230098476222858    0.620300856561318  0.0000
  O1     O1        0.580455528257513    0.778022137110826    0.630227232801239  0.0000
  O1     O1        0.875071017007424    0.882811925920109    0.611883430553690  0.0000
  O1     O1        0.621569147449748    0.123943164761988    0.622266185749015  0.0000
  O3     O3        0.078593519353503    0.802873752884941    0.302856201103824  0.0000
  O1     O1        0.417774364558252    0.268425535893496    0.378495615403567  0.0000
  O1     O1        0.024806713422080    0.975584755736818    0.533597635339553  0.0000
  O1     O1        0.470386029545727    0.027921768811861    0.559055062668696  0.0000
  O3     O3        0.968339059692372    0.056940492473402    0.297987212453000  0.0000
  O1     O1        0.522497209624991    0.002099411968538    0.308721167998464  0.0000
  O1     O1        0.975838251754521    0.006001616933365    0.794767940590095  0.0000
  O3     O3        0.523773172183452    0.006979175969604    0.814924446947991  0.0000
  O1     O1        0.622884096519995    0.161622044203352    0.138059988497091  0.0000
  O3     O3        0.867403503698560    0.933229550465272    0.125766467564135  0.0000
  O3     O3        0.413770531960672    0.218374322949602    0.880471337617364  0.0000
  O1     O1        0.079126200601007    0.767521355500567    0.892232794290315  0.0000
  O3     O3        0.388701994829965    0.885810546094177    0.875298050995771  0.0000
  O1     O1        0.121674582940565    0.110819758792100    0.877912876732410  0.0000
  O3     O3        0.589455469684457    0.800587707039174    0.113022513730173  0.0000
  O3     O3        0.918484068472382    0.251619003690703    0.117784010008890  0.0000
  O3     O3        0.476105009738587    0.037369823234317    0.057002383895818  0.0000
  O3     O3        0.010820795047854    0.995211063927831    0.060925219284486  0.0000
  O3     O3        0.147439572675296    0.506560805743300    0.339911074806139  0.0000
  O1     O1        0.344001410410970    0.580424786840512    0.348242020501452  0.0000
  O1     O1        0.838061945081264    0.542836282940073    0.653820295071609  0.0000
  O1     O1        0.659184831424320    0.468341092178573    0.657503389674637  0.0000
  O1     O1        0.263752688083954    0.272248034592204    0.292208844874919  0.0000
  O3     O3        0.223940681082603    0.800737966813881    0.309016287229523  0.0000
  O1     O1        0.768004523968684    0.229799277877416    0.715743986958199  0.0000
  O1     O1        0.730492071140450    0.790653502618486    0.709595771555732  0.0000
  O1     O1        0.136084704457525    0.254049016531553    0.125024577865006  0.0000
  O1     O1        0.345501916658960    0.777601591821818    0.123205929468335  0.0000
  O1     O1        0.882770587984035    0.371678394400271    0.872811897233128  0.0000
  O3     O3        0.621923568472482    0.660557574415064    0.880692976269499  0.0000
  O1     O1        0.857390041537372    0.773756368661114    0.872635717345684  0.0000
  O1     O1        0.640471459418463    0.259072090388943    0.878178189234901  0.0000
  O3     O3        0.159846287508675    0.628608571283775    0.116304651063882  0.0000
  O1     O1        0.382720963577828    0.376400231231908    0.129933360589617  0.0000
  O3     O3        0.659708022953351    0.506358148877598    0.090034697415674  0.0000
  O1     O1        0.846891130206547    0.572266124662934    0.093772994097499  0.0000
  O1     O1        0.343493059323142    0.540589792656711    0.905124778106138  0.0000
  O1     O1        0.156136474596582    0.456953582127078    0.889791032080852  0.0000
  O1     O1        0.766795492827800    0.259487344756982    0.040003728843799  0.0000
  O3     O3        0.729495759465255    0.795317533061720    0.031725959629955  0.0000
  O1     O1        0.266178684751869    0.235773864135978    0.974220631528513  0.0000
  O1     O1        0.235988711218429    0.784941384346556    0.919612085136188  0.0000
