data_c00640.vasp
_audit_creation_method             Generated by GULP
_audit_author_name                 Salvador R. G. Balestra
_symmetry_space_group_name_H-M     'P 1             '
_symmetry_Int_Tables_number        1

loop_
_symmetry_equiv_pos_site_id
_symmetry_equiv_pos_as_xyz
_cell_length_a                       17.8011
_cell_length_b                        7.8491
_cell_length_c                       10.3418
_cell_angle_alpha                   89.9895
_cell_angle_beta                    89.4312
_cell_angle_gamma                   89.9677

loop_
_atom_site_label
_atom_site_type_symbol
_atom_site_fract_x
_atom_site_fract_y
_atom_site_fract_z
_atom_site_charge
  Ge     Ge        0.052090000000021    0.000000000000000    0.372269999999958  0.0000
  Ge     Ge        0.451513440159169    0.029419254690678    0.352175750352068  0.0000
  Ge     Ge        0.947290727486693    0.023067902206543    0.633841266233731  0.0000
  Ge     Ge        0.559413423363810    0.045879280628033    0.601109760022301  0.0000
  Ge     Ge        0.555094143766301    0.024476520504182    0.092450135290980  0.0000
  Ge     Ge        0.058520684075805    0.007751281140181    0.880513089725407  0.0000
  Ge     Ge        0.174901367121822    0.283203520523282    0.261760711114273  0.0000
  Ge     Ge        0.331195250744929    0.749717394751642    0.274621720681931  0.0000
  Ge     Ge        0.676328925860301    0.758683771151948    0.717372384818153  0.0000
  Ge     Ge        0.657768330743636    0.358750566401898    0.699193856157724  0.0000
  Ge     Ge        0.152320829333630    0.688958987769984    0.266052203708426  0.0000
  Ge     Ge        0.353680416222356    0.343741166220729    0.272850040347423  0.0000
  Ge     Ge        0.658869912694537    0.338583180644401    0.018052883227327  0.0000
  Ge     Ge        0.859138430150727    0.698777909803144    0.017811663395977  0.0000
  Ge     Ge        0.361097182895581    0.343855457819751    0.958179320394964  0.0000
  Ge     Ge        0.158587916554479    0.692005758909334    0.949966253976226  0.0000
  Ge     Ge        0.338584480107423    0.751320533156817    0.959592479316620  0.0000
  Ge     Ge        0.180773412390184    0.288839253736930    0.947367946476272  0.0000
  Ge     Ge        0.678476601175517    0.743660963675007    0.030499443631513  0.0000
  Ge     Ge        0.838386496415576    0.287698132346860    0.007288981023426  0.0000
  Si     Si        0.953695286464661    0.005525983484123    0.124686555257166  0.0000
  Si     Si        0.453599839173538    0.031962138741505    0.846633184642068  0.0000
  Si     Si        0.835083901164682    0.313257170695672    0.699026698873648  0.0000
  Si     Si        0.854141667950626    0.707010351711304    0.713942560743460  0.0000
  O1     O1        0.124688865637684    0.139881370962625    0.350725829387484  0.0000
  O1     O1        0.381125927993850    0.881972095214715    0.373103332830244  0.0000
  O3     O3        0.883678034147832    0.188350005659408    0.608770968287021  0.0000
  O1     O1        0.634677573465618    0.917123580606384    0.632368784942277  0.0000
  O3     O3        0.904428857715757    0.824144872199214    0.621062996075293  0.0000
  O1     O1        0.593901488073098    0.249001250227288    0.609876594519453  0.0000
  O1     O1        0.085414892524891    0.796999254308255    0.353121589300252  0.0000
  O1     O1        0.414082605950658    0.229914443957600    0.367977145491480  0.0000
  O1     O1        0.020158202595022    0.030949145013920    0.527485003599870  0.0000
  O1     O1        0.527647743038251    0.003507845600633    0.448608706174366  0.0000
  O3     O3        0.975832842565710    0.034526790148777    0.272667014522059  0.0000
  O1     O1        0.480987795836512    0.001643227213090    0.193914205232326  0.0000
  O1     O1        0.983432789664206    0.045730255861004    0.785892435913683  0.0000
  O3     O3        0.481425422323501    0.014936401017426    0.699209772581691  0.0000
  O1     O1        0.594397133824849    0.223605951518599    0.104253558571687  0.0000
  O3     O3        0.924350462538570    0.812912199056379    0.103428809142284  0.0000
  O3     O3        0.427010865175580    0.225025749591538    0.874350161586933  0.0000
  O1     O1        0.096501225486065    0.808549849954863    0.860586754616869  0.0000
  O3     O3        0.385364954274921    0.901872195367648    0.868577695547289  0.0000
  O1     O1        0.130556994583357    0.150759382443493    0.855321712279046  0.0000
  O1     O1        0.625446461598702    0.879062588659882    0.122074850885506  0.0000
  O3     O3        0.888041652444977    0.136888740353301    0.089458451560221  0.0000
  O3     O3        0.523982800531463    0.987404272562932    0.936109687915429  0.0000
  O3     O3        0.028388791087605    0.035297630137063    0.039978688330040  0.0000
  O1     O1        0.162484223322367    0.485926749938378    0.323225630103949  0.0000
  O1     O1        0.341565183735905    0.544319462948234    0.331653434499637  0.0000
  O2     O2        0.847260264142148    0.513103954731148    0.660986315431372  0.0000
  O1     O1        0.657611549130314    0.565317841717115    0.647253236300340  0.0000
  O1     O1        0.269206394637669    0.237167680977123    0.266491995087451  0.0000
  O1     O1        0.237154487828249    0.795511629097974    0.274525648499847  0.0000
  O3     O3        0.747566493229304    0.272156085147305    0.685796177940967  0.0000
  O3     O3        0.772210378172692    0.791013600950101    0.723808229800996  0.0000
  O1     O1        0.147207707728573    0.281981738753483    0.103678930648983  0.0000
  O1     O1        0.365423351672005    0.758313788032785    0.118115566324418  0.0000
  O3     O3        0.862372053621863    0.285263641395051    0.845091127427954  0.0000
  O1     O1        0.646135648810215    0.755333021468350    0.874460798019152  0.0000
  O3     O3        0.888619812750135    0.705602800699750    0.857113649709916  0.0000
  O1     O1        0.631641381990145    0.347915981974625    0.859008068090759  0.0000
  O1     O1        0.126233424631911    0.680555251251386    0.106853752993003  0.0000
  O1     O1        0.388358673244294    0.353085287582528    0.116572926327037  0.0000
  O1     O1        0.667192602795594    0.537230759927521    0.083110424625770  0.0000
  O1     O1        0.855886131148924    0.489566788586746    0.065473499014125  0.0000
  O1     O1        0.355819672686036    0.548776992033122    0.900755699249351  0.0000
  O1     O1        0.169528291401750    0.492480755469559    0.887711944855707  0.0000
  O1     O1        0.745275605694278    0.239649502897062    0.022553195487254  0.0000
  O1     O1        0.772422068883892    0.790548291590011    0.036376923588566  0.0000
  O1     O1        0.275195751339164    0.245541462737970    0.947411838850717  0.0000
  O1     O1        0.244445087525909    0.793640912883868    0.952281410647725  0.0000
