data_c00668.vasp
_audit_creation_method             Generated by GULP
_audit_author_name                 Salvador R. G. Balestra
_symmetry_space_group_name_H-M     'P 1             '
_symmetry_Int_Tables_number        1

loop_
_symmetry_equiv_pos_site_id
_symmetry_equiv_pos_as_xyz
_cell_length_a                       17.5022
_cell_length_b                        7.8467
_cell_length_c                       10.3635
_cell_angle_alpha                   90.5290
_cell_angle_beta                    90.5090
_cell_angle_gamma                   88.1610

loop_
_atom_site_label
_atom_site_type_symbol
_atom_site_fract_x
_atom_site_fract_y
_atom_site_fract_z
_atom_site_charge
  Ge     Ge        0.052090000000021    0.000000000000000    0.372269999999958  0.0000
  Ge     Ge        0.455133707806370    0.939307458941850    0.378102947241948  0.0000
  Ge     Ge        0.948648234286602    0.946885111231259    0.624184729747043  0.0000
  Ge     Ge        0.564329680346505    0.000142386144577    0.134552188805982  0.0000
  Ge     Ge        0.940471168767104    0.956594861888721    0.128551469642086  0.0000
  Ge     Ge        0.456169390647901    0.936420311560940    0.881754290601171  0.0000
  Ge     Ge        0.049886177589946    0.002213938443227    0.882622112064483  0.0000
  Ge     Ge        0.148046781005292    0.310152420402572    0.261521236744790  0.0000
  Ge     Ge        0.359259828367060    0.628478504524532    0.265776373077884  0.0000
  Ge     Ge        0.827396310070514    0.233059467126900    0.710619450714899  0.0000
  Ge     Ge        0.668313887685381    0.711415562694150    0.707700162940406  0.0000
  Ge     Ge        0.850376607287550    0.642267664105551    0.703364099516549  0.0000
  Ge     Ge        0.644499519728090    0.305197960536877    0.710923975782771  0.0000
  Ge     Ge        0.176711697184589    0.710663838024764    0.264375856660902  0.0000
  Ge     Ge        0.330315629368996    0.226670920020424    0.264528921319636  0.0000
  Ge     Ge        0.650115427898743    0.321499192140379    0.020927802662618  0.0000
  Ge     Ge        0.330683690937842    0.224702641880171    0.951120277300643  0.0000
  Ge     Ge        0.176381647493662    0.714634501633857    0.951008452246352  0.0000
  Ge     Ge        0.357507102191750    0.626500791634617    0.951383386903575  0.0000
  Ge     Ge        0.149849987603640    0.314092708982213    0.946808277116913  0.0000
  Si     Si        0.552186970872080    0.996880581148454    0.630285137062090  0.0000
  Si     Si        0.852169742504640    0.643915153123857    0.004902120714272  0.0000
  Si     Si        0.672724492130259    0.710442505864974    0.011615755681715  0.0000
  Si     Si        0.832978395599183    0.254334608252897    0.013171812125409  0.0000
  O1     O1        0.079483207651665    0.203404751331811    0.342277056117746  0.0000
  O1     O1        0.426898973429378    0.734926308831882    0.352726444580016  0.0000
  O1     O1        0.875243271656593    0.097337887357550    0.608777047838928  0.0000
  O3     O3        0.618817842203837    0.852864303131943    0.609101046282530  0.0000
  O1     O1        0.912450679655431    0.746780855073718    0.607412251765897  0.0000
  O3     O3        0.583773874544630    0.185512771133028    0.615314042878119  0.0000
  O1     O1        0.128636569360393    0.861675939541936    0.354333958261930  0.0000
  O1     O1        0.378540110289802    0.075837731283487    0.353571257737992  0.0000
  O1     O1        0.025064292244831    0.985537469668149    0.531794466348533  0.0000
  O3     O3        0.480510149083190    0.964406432877415    0.539815152889090  0.0000
  O1     O1        0.971252356167757    0.950025114760722    0.286024105327018  0.0000
  O1     O1        0.534861596519232    0.982348214158047    0.290619392593973  0.0000
  O1     O1        0.975256005415448    0.963306657110033    0.784819109726547  0.0000
  O3     O3        0.529396559394001    0.976768323958886    0.780423249679526  0.0000
  O1     O1        0.594281427028377    0.205595995909261    0.118099756052173  0.0000
  O3     O3        0.900634799909915    0.759762406698966    0.098995320261384  0.0000
  O1     O1        0.381064634147933    0.080745498337788    0.859339295786163  0.0000
  O1     O1        0.125305229080459    0.857749957870956    0.860196459567117  0.0000
  O1     O1        0.422402111619673    0.734651794591188    0.863408537965934  0.0000
  O1     O1        0.084209376661072    0.202917226961446    0.860238006534945  0.0000
  O3     O3        0.642133386685423    0.864387403435587    0.099580181016630  0.0000
  O3     O3        0.873417029077749    0.121946334311155    0.109616356076298  0.0000
  O1     O1        0.487585670116855    0.955788201395993    0.039343335761149  0.0000
  O1     O1        0.020548429371135    0.986492679655980    0.041085324965614  0.0000
  O1     O1        0.160628788912685    0.510464572736443    0.324153632467274  0.0000
  O1     O1        0.346673027808325    0.428198773257453    0.324761169220900  0.0000
  O1     O1        0.840501174486889    0.437001058281538    0.655692617911023  0.0000
  O1     O1        0.652156938054117    0.506732727402037    0.653288926852447  0.0000
  O1     O1        0.233782396527181    0.195249638036719    0.267308268087628  0.0000
  O1     O1        0.273266645184072    0.741984790138829    0.268852091702389  0.0000
  O1     O1        0.731834314490620    0.197954604933917    0.710875639095378  0.0000
  O1     O1        0.763211905747396    0.750349269087967    0.696819720795043  0.0000
  O1     O1        0.119988160947836    0.334295486778583    0.104019188981268  0.0000
  O1     O1        0.388785417102491    0.609894005594296    0.108748899751832  0.0000
  O3     O3        0.862323008617237    0.217058864506651    0.868674820600787  0.0000
  O3     O3        0.637934668062881    0.724023081342056    0.867546198385739  0.0000
  O3     O3        0.885274209784103    0.648671133400280    0.861712374729399  0.0000
  O1     O1        0.612943458763532    0.314945950375458    0.867474418489318  0.0000
  O1     O1        0.144485883428355    0.723964871648916    0.107770548641862  0.0000
  O1     O1        0.362717348020364    0.214209820488960    0.108711007191555  0.0000
  O3     O3        0.649787218634202    0.531994502915627    0.073401646732305  0.0000
  O2     O2        0.853933831317330    0.448345232545096    0.054341705993477  0.0000
  O1     O1        0.344269092880076    0.426964308778729    0.891552752707744  0.0000
  O1     O1        0.163207991236619    0.512252882540585    0.887606090582709  0.0000
  O3     O3        0.742320729642719    0.236492014040464    0.016956925957254  0.0000
  O2     O2        0.764387251522092    0.713669089138767    0.996080889098892  0.0000
  O1     O1        0.234442940890648    0.193706081514257    0.948962155854551  0.0000
  O1     O1        0.272776270247745    0.746131203321082    0.952027857812803  0.0000
