data_c00603.vasp
_audit_creation_method             Generated by GULP
_audit_author_name                 Salvador R. G. Balestra
_symmetry_space_group_name_H-M     'P 1             '
_symmetry_Int_Tables_number        1

loop_
_symmetry_equiv_pos_site_id
_symmetry_equiv_pos_as_xyz
_cell_length_a                       17.6237
_cell_length_b                        7.8083
_cell_length_c                       10.2319
_cell_angle_alpha                   91.2518
_cell_angle_beta                    90.5754
_cell_angle_gamma                   91.2547

loop_
_atom_site_label
_atom_site_type_symbol
_atom_site_fract_x
_atom_site_fract_y
_atom_site_fract_z
_atom_site_charge
  Ge     Ge        0.052090000000021    0.000000000000000    0.372269999999958  0.0000
  Ge     Ge        0.445767408090423    0.052432443691585    0.334746513143109  0.0000
  Ge     Ge        0.944293018021626    0.028950907176984    0.627768611226609  0.0000
  Ge     Ge        0.550912019818071    0.975417761651749    0.583206810666387  0.0000
  Ge     Ge        0.546364525353006    0.979796916872533    0.079825674724267  0.0000
  Ge     Ge        0.440315306833697    0.032011389076256    0.826247418368201  0.0000
  Ge     Ge        0.168290552242646    0.293349267499504    0.270286340577857  0.0000
  Ge     Ge        0.321422088294357    0.769123173680162    0.258436080990311  0.0000
  Ge     Ge        0.643956878482685    0.663165208527644    0.698948480988678  0.0000
  Ge     Ge        0.825046320210976    0.738636928999665    0.699222560212950  0.0000
  Ge     Ge        0.672141917606780    0.262733816665093    0.700551898613420  0.0000
  Ge     Ge        0.349178308733019    0.368002009707960    0.269458720274237  0.0000
  Ge     Ge        0.672353269563118    0.265002986064301    0.016844902666776  0.0000
  Ge     Ge        0.828641102124786    0.752112796602958    0.016904752735189  0.0000
  Ge     Ge        0.343323544059134    0.342762480130274    0.950426884105978  0.0000
  Ge     Ge        0.139934746593280    0.667270036161590    0.945904612156271  0.0000
  Ge     Ge        0.319020140076537    0.749365095528002    0.940257466170819  0.0000
  Ge     Ge        0.161973471234989    0.262875017627742    0.954797307079586  0.0000
  Ge     Ge        0.648497315673945    0.668240700397693    0.020165888856027  0.0000
  Ge     Ge        0.852452749794204    0.344291082189195    0.012449490579499  0.0000
  Si     Si        0.944434841449445    0.041195037462436    0.128299200324166  0.0000
  Si     Si        0.042157573521911    0.973602898226767    0.884047686916755  0.0000
  Si     Si        0.849167174289190    0.342443271301830    0.702946239085743  0.0000
  Si     Si        0.145252783240617    0.687838999925676    0.257183190539701  0.0000
  O1     O1        0.120970772396227    0.156641984600795    0.370693608910913  0.0000
  O1     O1        0.367657754118536    0.918828888938189    0.354407956947445  0.0000
  O3     O3        0.906694910367212    0.231807839062414    0.616837186841746  0.0000
  O1     O1        0.574999189478234    0.769030644997480    0.615438359304016  0.0000
  O1     O1        0.874835940632667    0.874083149230412    0.601185344103525  0.0000
  O1     O1        0.630060516668371    0.103454397959494    0.607730460266966  0.0000
  O3     O3        0.084285606003632    0.797840359866861    0.334625004334737  0.0000
  O1     O1        0.415623368592927    0.258252535647165    0.356880788358881  0.0000
  O1     O1        0.019752104597107    0.998843587275664    0.529969574090267  0.0000
  O1     O1        0.523401689108041    0.996392132862061    0.421908646755266  0.0000
  O3     O3        0.974035630303836    0.044954084421602    0.276336028331309  0.0000
  O1     O1        0.470076116768213    0.026666725823900    0.171635318539140  0.0000
  O3     O3        0.973379468492366    0.010131612535031    0.789655996919406  0.0000
  O1     O1        0.471935711972026    0.036059961967018    0.667690565376344  0.0000
  O1     O1        0.620090815430873    0.125916541224555    0.106592193168120  0.0000
  O3     O3        0.874670213684263    0.906822263626350    0.113060593416845  0.0000
  O1     O1        0.410031413343559    0.234217186682551    0.864517067158171  0.0000
  O3     O3        0.072072729715165    0.781395479849226    0.864024931106687  0.0000
  O1     O1        0.366328933283698    0.887147549192165    0.841033097208279  0.0000
  O3     O3        0.111345759246077    0.108720356386401    0.865305467696666  0.0000
  O1     O1        0.582464062210709    0.780075194708605    0.106074108097454  0.0000
  O3     O3        0.920317257487156    0.232654272334254    0.094662522728052  0.0000
  O1     O1        0.517519435220531    0.978499490333407    0.917984320977501  0.0000
  O2     O2        0.013921907847650    0.985796261427415    0.034955235868205  0.0000
  O3     O3        0.157965677158143    0.505537382382523    0.322951116706474  0.0000
  O1     O1        0.341092154174973    0.573540416233116    0.324933324337018  0.0000
  O3     O3        0.837101945931453    0.527815677093321    0.644036417822715  0.0000
  O1     O1        0.652135986471824    0.458436341725599    0.636514053672743  0.0000
  O1     O1        0.263660453399676    0.256924242660335    0.274498206997242  0.0000
  O3     O3        0.224208276964197    0.797149228782547    0.255990022937289  0.0000
  O3     O3        0.769331283744385    0.237206022969259    0.707938657925108  0.0000
  O1     O1        0.729502748411829    0.773758448215804    0.690853565174780  0.0000
  O1     O1        0.133943341664365    0.256903339521886    0.114785773854878  0.0000
  O1     O1        0.351647125814548    0.776161058724599    0.098862306823631  0.0000
  O3     O3        0.879401233536740    0.367061379611063    0.851362764244739  0.0000
  O1     O1        0.619550172334687    0.643425601921481    0.859406709757699  0.0000
  O1     O1        0.856736173294131    0.766114513865913    0.857700181935384  0.0000
  O1     O1        0.639454109570704    0.249480445813739    0.857638413714060  0.0000
  O3     O3        0.118159286576293    0.645907908202819    0.109745973884366  0.0000
  O1     O1        0.375267408634070    0.373576150062757    0.108072290482143  0.0000
  O1     O1        0.660552595326157    0.469298948973701    0.080640550717407  0.0000
  O1     O1        0.844853482769429    0.549006493295523    0.073794605440236  0.0000
  O1     O1        0.330821429997463    0.541148226817000    0.886498031260417  0.0000
  O1     O1        0.146068610555558    0.461395428555550    0.888388124044054  0.0000
  O1     O1        0.768164996219857    0.230899935921274    0.020729813756171  0.0000
  O1     O1        0.732853099864577    0.784438302342211    0.022380268394144  0.0000
  O1     O1        0.257956152870075    0.229725403700077    0.949173321734359  0.0000
  O1     O1        0.223237335115305    0.782839811122720    0.935039858615945  0.0000
