data_c00633.vasp
_audit_creation_method             Generated by GULP
_audit_author_name                 Salvador R. G. Balestra
_symmetry_space_group_name_H-M     'P 1             '
_symmetry_Int_Tables_number        1

loop_
_symmetry_equiv_pos_site_id
_symmetry_equiv_pos_as_xyz
_cell_length_a                       17.5584
_cell_length_b                        7.8312
_cell_length_c                       10.2369
_cell_angle_alpha                   91.1340
_cell_angle_beta                    90.2159
_cell_angle_gamma                   91.7050

loop_
_atom_site_label
_atom_site_type_symbol
_atom_site_fract_x
_atom_site_fract_y
_atom_site_fract_z
_atom_site_charge
  Ge     Ge        0.052090000000021    0.000000000000000    0.372269999999958  0.0000
  Ge     Ge        0.449185289101811    0.062441684357628    0.397737999442449  0.0000
  Ge     Ge        0.945087006012398    0.037418649491604    0.626498628936191  0.0000
  Ge     Ge        0.554207250859071    0.991512813849396    0.649204294512006  0.0000
  Ge     Ge        0.549997858193249    0.000274090653143    0.137218662073621  0.0000
  Ge     Ge        0.054885846930887    0.991058161356069    0.876092746882672  0.0000
  Ge     Ge        0.171908319644775    0.294835541705062    0.307663753136898  0.0000
  Ge     Ge        0.327423773675972    0.773655173283309    0.315901094322059  0.0000
  Ge     Ge        0.852334779249960    0.355300788061314    0.745730667718411  0.0000
  Ge     Ge        0.642953385332929    0.671493643610151    0.756199212880400  0.0000
  Ge     Ge        0.825455453124726    0.752744372984372    0.740983621509641  0.0000
  Ge     Ge        0.353444188839009    0.374000164469321    0.321672707578970  0.0000
  Ge     Ge        0.676638363290186    0.288623357683193    0.068814610876629  0.0000
  Ge     Ge        0.834153676304189    0.768717723489788    0.056912249737074  0.0000
  Ge     Ge        0.358343499544981    0.363114486031941    0.003862822052648  0.0000
  Ge     Ge        0.149968470911795    0.684097473014722    0.994202357745451  0.0000
  Ge     Ge        0.331378348313530    0.766978321640684    0.997645062355095  0.0000
  Ge     Ge        0.175732669074044    0.281137518193949    0.991637605867000  0.0000
  Ge     Ge        0.652000164394199    0.690622786107682    0.071220320985486  0.0000
  Ge     Ge        0.856957074955395    0.366616909617733    0.064810334234025  0.0000
  Si     Si        0.953738542163048    0.060840504574452    0.121906293615749  0.0000
  Si     Si        0.448107818210187    0.051923064209810    0.888366724426731  0.0000
  Si     Si        0.673506693258851    0.279694193065886    0.757640351651964  0.0000
  Si     Si        0.150597243548001    0.689932928833803    0.305717792986570  0.0000
  O1     O1        0.120066372089124    0.158310793406353    0.403593222689708  0.0000
  O1     O1        0.373126316900137    0.920430110710778    0.415337863303913  0.0000
  O1     O1        0.917321920573034    0.241894040977672    0.659903682897391  0.0000
  O1     O1        0.578548256427547    0.783366045736864    0.667427298161431  0.0000
  O1     O1        0.867792587752515    0.902871444180611    0.644758719152364  0.0000
  O3     O3        0.631500235616409    0.127586186828492    0.677337964710459  0.0000
  O3     O3        0.090193844446876    0.799253826083777    0.386154342188135  0.0000
  O1     O1        0.416066674615416    0.264926095460952    0.415945097671642  0.0000
  O1     O1        0.973964440171392    0.022267070407189    0.466285119350727  0.0000
  O1     O1        0.526429745355765    0.018588556853494    0.489687328925073  0.0000
  O3     O3        0.025707841441245    0.021333922272126    0.209305840850181  0.0000
  O1     O1        0.475557063988481    0.040023307912834    0.235151247282609  0.0000
  O1     O1        0.023055167245876    0.985645658264696    0.717671114432058  0.0000
  O3     O3        0.474443838509078    0.043959292840019    0.738406128760820  0.0000
  O1     O1        0.622942578589957    0.150814282746119    0.157848629884147  0.0000
  O3     O3        0.885758831588523    0.921876026104576    0.145267458957245  0.0000
  O3     O3        0.425908701949701    0.245313058180578    0.923199984802035  0.0000
  O1     O1        0.080587699102381    0.787769001540418    0.914074872402096  0.0000
  O3     O3        0.376475576116841    0.922555016823692    0.907272784812709  0.0000
  O1     O1        0.131762600595243    0.129841834417789    0.892700872388903  0.0000
  O1     O1        0.589463511696288    0.805184733081320    0.162860194031384  0.0000
  O3     O3        0.922788855559498    0.249887759097732    0.149415606840204  0.0000
  O3     O3        0.519394297507190    0.997281574853225    0.975257953706484  0.0000
  O3     O3        0.978761429096957    0.054236310110381    0.970117776955216  0.0000
  O3     O3        0.161122686548917    0.504654852286095    0.365009057938682  0.0000
  O1     O1        0.343477976074138    0.576568476453988    0.380847090759822  0.0000
  O1     O1        0.843093929051813    0.551864596977745    0.678909107376661  0.0000
  O3     O3        0.653778227976197    0.463431446869064    0.698465855455348  0.0000
  O1     O1        0.267663505265634    0.260313348257192    0.316334729440620  0.0000
  O3     O3        0.230029714619084    0.800046812849647    0.307204840471927  0.0000
  O3     O3        0.763550226284113    0.251010409691331    0.750820897436536  0.0000
  O1     O1        0.729367152481156    0.778925292251483    0.747067353151265  0.0000
  O1     O1        0.142194004553595    0.266253349192881    0.148587662164022  0.0000
  O1     O1        0.360544678971590    0.783986383901333    0.157876327895924  0.0000
  O1     O1        0.882548575399767    0.384686609030596    0.904008446777823  0.0000
  O1     O1        0.615060249763563    0.668259273483654    0.915365017630656  0.0000
  O1     O1        0.862687571013447    0.772558240311749    0.896630009611491  0.0000
  O3     O3        0.646100793480200    0.279027836147268    0.907261954746621  0.0000
  O3     O3        0.124110252602623    0.661599549721427    0.156253099357095  0.0000
  O1     O1        0.386131799367675    0.389004113271226    0.163712842973276  0.0000
  O1     O1        0.665086391443756    0.492602428979026    0.131382824611961  0.0000
  O1     O1        0.849468608006736    0.570905049736579    0.123701869044061  0.0000
  O1     O1        0.350485170221043    0.563688698312905    0.940603732578218  0.0000
  O1     O1        0.159665520936082    0.481538755037568    0.932225779651993  0.0000
  O1     O1        0.771906803805454    0.252013102572093    0.074371333351384  0.0000
  O1     O1        0.738215365081100    0.802148129852492    0.062996742596519  0.0000
  O1     O1        0.272304638234468    0.254067368130143    0.995566114565964  0.0000
  O1     O1        0.235242974807102    0.796672960620561    0.985660970824533  0.0000
