data_c00626.vasp
_audit_creation_method             Generated by GULP
_audit_author_name                 Salvador R. G. Balestra
_symmetry_space_group_name_H-M     'P 1             '
_symmetry_Int_Tables_number        1

loop_
_symmetry_equiv_pos_site_id
_symmetry_equiv_pos_as_xyz
_cell_length_a                       17.5735
_cell_length_b                        7.8324
_cell_length_c                       10.3126
_cell_angle_alpha                   90.1241
_cell_angle_beta                    89.4669
_cell_angle_gamma                   88.5216

loop_
_atom_site_label
_atom_site_type_symbol
_atom_site_fract_x
_atom_site_fract_y
_atom_site_fract_z
_atom_site_charge
  Ge     Ge        0.052090000000021    0.000000000000000    0.372269999999958  0.0000
  Ge     Ge        0.444444110200193    0.951371496754110    0.355966489862368  0.0000
  Ge     Ge        0.949830270040541    0.940053733728240    0.629610242992768  0.0000
  Ge     Ge        0.550119155595092    0.996032824713042    0.610594029826587  0.0000
  Ge     Ge        0.547941906446341    0.008386174321645    0.097714876552175  0.0000
  Ge     Ge        0.050038528778501    0.013172634338288    0.887910462628780  0.0000
  Ge     Ge        0.143596689681664    0.318047115551523    0.258270598328135  0.0000
  Ge     Ge        0.346919624202418    0.639731776811806    0.278731891173724  0.0000
  Ge     Ge        0.825891463641102    0.224220661365450    0.711802465331742  0.0000
  Ge     Ge        0.672986916891011    0.710194023361243    0.714413212869026  0.0000
  Ge     Ge        0.853504890731384    0.626511170202511    0.705403534599684  0.0000
  Ge     Ge        0.645485319078856    0.309254858120554    0.721452249603357  0.0000
  Ge     Ge        0.325136596987163    0.237845406350896    0.270167848648147  0.0000
  Ge     Ge        0.649157733947425    0.320648612068113    0.037804363620859  0.0000
  Ge     Ge        0.856427492199879    0.640388996862105    0.019852432429937  0.0000
  Ge     Ge        0.333974321329750    0.255971569238507    0.957023058335913  0.0000
  Ge     Ge        0.175538385026467    0.724199879401854    0.958798771963612  0.0000
  Ge     Ge        0.149805096392182    0.326246250165425    0.944275272826443  0.0000
  Ge     Ge        0.674193425329165    0.720305995778650    0.028545721046265  0.0000
  Ge     Ge        0.830451002243538    0.235982439936813    0.027056827728067  0.0000
  Si     Si        0.946392033350857    0.949989269874812    0.134531500538995  0.0000
  Si     Si        0.445399854213209    0.957316633482384    0.853109867245046  0.0000
  Si     Si        0.170281382578085    0.712749117194901    0.266240613746801  0.0000
  Si     Si        0.354169093274020    0.653113540771360    0.970695737572332  0.0000
  O1     O1        0.079356476908587    0.205397830141104    0.347441580508770  0.0000
  O1     O1        0.408378259395749    0.750536048460363    0.371781714757715  0.0000
  O1     O1        0.874500694192549    0.082952989927061    0.613746567764746  0.0000
  O1     O1        0.626028804051783    0.856975051264288    0.620118276152692  0.0000
  O1     O1        0.917216300618516    0.736882669552457    0.612640091849703  0.0000
  O1     O1        0.576552558904846    0.200282819825770    0.642445891585006  0.0000
  O3     O3        0.126021946087046    0.854042391491229    0.351179608851542  0.0000
  O1     O1        0.370295954930759    0.097415871127360    0.371373759344496  0.0000
  O1     O1        0.024950879191325    0.983962171661314    0.532239727452633  0.0000
  O1     O1        0.519241983485195    0.989318523796219    0.452636322606323  0.0000
  O3     O3        0.972775479655841    0.950773332986462    0.283209854583503  0.0000
  O1     O1        0.473791449569011    0.967248542097327    0.195944724208512  0.0000
  O1     O1        0.978762021507592    0.959354448695777    0.789477575621329  0.0000
  O3     O3        0.473209291691906    0.936217164251148    0.705358899037737  0.0000
  O1     O1        0.583544228319245    0.208715092055943    0.123330790332753  0.0000
  O3     O3        0.923604838426200    0.758174755024706    0.098790680573636  0.0000
  O3     O3        0.381992175290726    0.108714139175833    0.860111470607110  0.0000
  O1     O1        0.129169311507311    0.877942775343628    0.874135116220959  0.0000
  O2     O2        0.414627402737487    0.774054656866022    0.899940704267601  0.0000
  O1     O1        0.085821323436809    0.211816665065040    0.857618327605667  0.0000
  O1     O1        0.623290825611137    0.866429354670927    0.118324501184531  0.0000
  O3     O3        0.875342768777614    0.081023914653411    0.119065684169397  0.0000
  O3     O3        0.518350039387234    0.004757966299150    0.936901677471803  0.0000
  O3     O3        0.017428510491747    0.008686428403884    0.047562791048872  0.0000
  O3     O3        0.155214945245751    0.522433106186531    0.319327259344967  0.0000
  O1     O1        0.339327547946248    0.438224831777480    0.334761219417549  0.0000
  O1     O1        0.839603786420653    0.425938604197903    0.648637093939298  0.0000
  O1     O1        0.658451697849700    0.507338479783382    0.655564400266171  0.0000
  O1     O1        0.229450756357286    0.207341218503992    0.262585746366314  0.0000
  O3     O3        0.259654136828712    0.747960607591396    0.274376356694733  0.0000
  O1     O1        0.729895642734705    0.190666515176102    0.715180286679696  0.0000
  O1     O1        0.769055041621873    0.743477895853800    0.710967260531265  0.0000
  O1     O1        0.115316767827095    0.332005886658497    0.101367141799026  0.0000
  O3     O3        0.378645741633127    0.626890888005954    0.118608857932608  0.0000
  O1     O1        0.860172025673914    0.216394787539195    0.868237355145546  0.0000
  O1     O1        0.641459393942260    0.730066839679952    0.871883380522103  0.0000
  O1     O1        0.885541287448499    0.611211185875388    0.862446438814693  0.0000
  O1     O1        0.620073157578084    0.343015135988968    0.879782971751577  0.0000
  O3     O3        0.142822067556173    0.724268612834231    0.118069005234602  0.0000
  O1     O1        0.362019986756778    0.226981739471912    0.114167227010795  0.0000
  O1     O1        0.661168908942466    0.521463439342087    0.096654902809101  0.0000
  O1     O1        0.848219372146154    0.438804201167540    0.083621866368943  0.0000
  O3     O3        0.351030227461883    0.465474016446042    0.907501713372731  0.0000
  O1     O1        0.157094451220469    0.529959883848188    0.888887986086951  0.0000
  O1     O1        0.734472367408386    0.206371361817349    0.035071342191585  0.0000
  O1     O1        0.770620712073853    0.750752920481719    0.026111510496878  0.0000
  O1     O1        0.238330313003083    0.226171314059309    0.944751459954416  0.0000
  O3     O3        0.272676014492390    0.750191032352147    0.961259257600327  0.0000
