data_c00693.vasp
_audit_creation_method             Generated by GULP
_audit_author_name                 Salvador R. G. Balestra
_symmetry_space_group_name_H-M     'P 1             '
_symmetry_Int_Tables_number        1

loop_
_symmetry_equiv_pos_site_id
_symmetry_equiv_pos_as_xyz
_cell_length_a                       17.6924
_cell_length_b                        7.8441
_cell_length_c                       10.4732
_cell_angle_alpha                   89.2500
_cell_angle_beta                    91.2292
_cell_angle_gamma                   89.6517

loop_
_atom_site_label
_atom_site_type_symbol
_atom_site_fract_x
_atom_site_fract_y
_atom_site_fract_z
_atom_site_charge
  Ge     Ge        0.052090000000021    0.000000000000000    0.372269999999958  0.0000
  Ge     Ge        0.449787886417803    0.972391828744691    0.377920890760997  0.0000
  Ge     Ge        0.946611244082316    0.000140319456028    0.622798483157323  0.0000
  Ge     Ge        0.562256469714113    0.973721599640908    0.138210884374169  0.0000
  Ge     Ge        0.942968045425932    0.989514591532173    0.122423162518213  0.0000
  Ge     Ge        0.453588046175303    0.978543716563301    0.883551225302853  0.0000
  Ge     Ge        0.050974134753172    0.003680492302717    0.880278457192836  0.0000
  Ge     Ge        0.153839608646476    0.310701025678344    0.264605849662894  0.0000
  Ge     Ge        0.355215809773261    0.655567328277823    0.269031559822956  0.0000
  Ge     Ge        0.845397501415668    0.309153395643826    0.702523329444048  0.0000
  Ge     Ge        0.645617310670741    0.672680021105195    0.711614053557933  0.0000
  Ge     Ge        0.826724104339255    0.721356179245795    0.705980526596751  0.0000
  Ge     Ge        0.663716505036137    0.262155679612553    0.707813454849405  0.0000
  Ge     Ge        0.173479300495500    0.714369277471819    0.264641662990108  0.0000
  Ge     Ge        0.674388764553167    0.255417329202421    0.016259216024577  0.0000
  Ge     Ge        0.329804629991550    0.254751825974145    0.958724075684151  0.0000
  Ge     Ge        0.175102600162541    0.723575150581464    0.954094012860066  0.0000
  Ge     Ge        0.356158472776234    0.661635885096081    0.960664107200229  0.0000
  Ge     Ge        0.150146053651590    0.318577001661893    0.952879152632653  0.0000
  Ge     Ge        0.654033274096753    0.658364439865588    0.022380428255719  0.0000
  Si     Si        0.548556066466015    0.984750410056296    0.630123612678799  0.0000
  Si     Si        0.331861764743602    0.255182587039341    0.262657646757822  0.0000
  Si     Si        0.833041008049354    0.703765650269460    0.006940053568024  0.0000
  Si     Si        0.852870838496571    0.306019437672048    0.001434262111897  0.0000
  O1     O1        0.090809805816485    0.197791622868766    0.352107552916509  0.0000
  O1     O1        0.416979717512560    0.768370582535875    0.363052443538742  0.0000
  O1     O1        0.905627429976681    0.198916215004657    0.607914003216048  0.0000
  O3     O3        0.583535943070908    0.795939939901541    0.618835270873110  0.0000
  O1     O1        0.876234237574048    0.850450300183330    0.606642453401585  0.0000
  O3     O3        0.612635597275323    0.126909928946899    0.609971978202029  0.0000
  O1     O1        0.122571511833838    0.853532467952628    0.352711650957533  0.0000
  O3     O3        0.377543042629564    0.116337124652568    0.346705672805591  0.0000
  O1     O1        0.021696598817131    0.978084226569585    0.526859716745156  0.0000
  O3     O3        0.477730552625670    0.006401871567794    0.535158328605310  0.0000
  O1     O1        0.971895686800061    0.975005271466278    0.279255227547919  0.0000
  O1     O1        0.528490764156682    0.001597008959032    0.288311347461998  0.0000
  O1     O1        0.978000763538470    0.967725987656370    0.778403473190419  0.0000
  O3     O3        0.522390186574177    0.013553391018525    0.775002042380924  0.0000
  O1     O1        0.638667645318299    0.104285859013757    0.114544187386275  0.0000
  O3     O3        0.878210669319971    0.827110767767391    0.100666633942750  0.0000
  O1     O1        0.378480465340973    0.118183499087778    0.866418710371675  0.0000
  O1     O1        0.125838405239554    0.864968727019015    0.860144892228868  0.0000
  O1     O1        0.419603117156884    0.774762364519107    0.872682274594096  0.0000
  O1     O1        0.085305498656960    0.207472590997670    0.864467804849527  0.0000
  O1     O1        0.595450375465437    0.769639963579782    0.117918768300604  0.0000
  O3     O3        0.906634046468246    0.193704618306144    0.093470144128526  0.0000
  O1     O1        0.490109701418386    0.021810376738532    0.032770318610723  0.0000
  O1     O1        0.021578338078918    0.964906143209176    0.034190419720308  0.0000
  O1     O1        0.160159871703121    0.511298592909834    0.324042459609258  0.0000
  O3     O3        0.345956504199447    0.444673005143251    0.317071314020299  0.0000
  O1     O1        0.837088349190889    0.515626040946435    0.653417840924599  0.0000
  O1     O1        0.650075784961051    0.469894915169291    0.655184704799511  0.0000
  O3     O3        0.242958166524415    0.214975440410121    0.265919292178533  0.0000
  O1     O1        0.268572144077161    0.754604085240853    0.272425071106681  0.0000
  O1     O1        0.758103858803269    0.213994962806487    0.699014318906346  0.0000
  O1     O1        0.732475103454113    0.769386307887221    0.704279262677765  0.0000
  O1     O1        0.121624670891539    0.318732817645067    0.109101995940306  0.0000
  O1     O1        0.389055200625344    0.664068960303269    0.116891122652635  0.0000
  O3     O3        0.883098814127818    0.298943091826512    0.858093060324384  0.0000
  O1     O1        0.618041833311086    0.669008281846692    0.868211975094056  0.0000
  O3     O3        0.860058785323114    0.734406837842727    0.863330687266100  0.0000
  O1     O1        0.636350029666533    0.248408269947874    0.864183063578385  0.0000
  O1     O1        0.143234150524089    0.724966581531384    0.108394635745558  0.0000
  O3     O3        0.359978305537030    0.249439771641456    0.117957607903692  0.0000
  O1     O1        0.656505583461041    0.453038069965502    0.077609365723243  0.0000
  O2     O2        0.847495315575985    0.503578672557787    0.045373219667069  0.0000
  O1     O1        0.345522248355073    0.460502505509066    0.904948079992119  0.0000
  O1     O1        0.161538833201915    0.520457924171010    0.895653417955397  0.0000
  O3     O3        0.770269194002866    0.223950728824400    0.001401711240576  0.0000
  O3     O3        0.744391430447909    0.742367261726648    0.016617467130976  0.0000
  O1     O1        0.235675632660076    0.211343573928332    0.950445771669995  0.0000
  O1     O1        0.269956471515459    0.765409785487873    0.957522592744924  0.0000
