data_c00622.vasp
_audit_creation_method             Generated by GULP
_audit_author_name                 Salvador R. G. Balestra
_symmetry_space_group_name_H-M     'P 1             '
_symmetry_Int_Tables_number        1

loop_
_symmetry_equiv_pos_site_id
_symmetry_equiv_pos_as_xyz
_cell_length_a                       17.5128
_cell_length_b                        7.8274
_cell_length_c                       10.3042
_cell_angle_alpha                   89.2412
_cell_angle_beta                    90.7841
_cell_angle_gamma                   88.2755

loop_
_atom_site_label
_atom_site_type_symbol
_atom_site_fract_x
_atom_site_fract_y
_atom_site_fract_z
_atom_site_charge
  Ge     Ge        0.052090000000021    0.000000000000000    0.372269999999958  0.0000
  Ge     Ge        0.444262193543703    0.951816017398880    0.376046895208443  0.0000
  Ge     Ge        0.944398629010029    0.948600264838350    0.622158256805291  0.0000
  Ge     Ge        0.542835496353218    0.012127790359297    0.635618846552376  0.0000
  Ge     Ge        0.557886841281664    0.002280609641557    0.136967576618313  0.0000
  Ge     Ge        0.044949621483900    0.010265104269893    0.882745697661843  0.0000
  Ge     Ge        0.146336870186536    0.315661350571637    0.260744216706809  0.0000
  Ge     Ge        0.357074380134086    0.628955255421057    0.265523740626304  0.0000
  Ge     Ge        0.822855067117808    0.232893177124058    0.703171245358060  0.0000
  Ge     Ge        0.667726809188002    0.725458925716521    0.712650237069937  0.0000
  Ge     Ge        0.848141855800821    0.636817224395291    0.702377291644746  0.0000
  Ge     Ge        0.643391568431617    0.319619611193426    0.710617008358224  0.0000
  Ge     Ge        0.173759978154147    0.713288987125575    0.265637733914149  0.0000
  Ge     Ge        0.856738967181761    0.632034354628095    0.017348585038395  0.0000
  Ge     Ge        0.328988386393807    0.240354624247078    0.952617642392159  0.0000
  Ge     Ge        0.172135492646650    0.720940315569912    0.951806283052576  0.0000
  Ge     Ge        0.355057320961577    0.641421653683453    0.953293503190616  0.0000
  Ge     Ge        0.147946582555375    0.319512667741064    0.942329277743753  0.0000
  Ge     Ge        0.672915664635338    0.706472489632658    0.025696199685847  0.0000
  Ge     Ge        0.829712118925990    0.230786810145361    0.018505954430740  0.0000
  Si     Si        0.945495872359952    0.942223307416038    0.130454719875725  0.0000
  Si     Si        0.450702442999505    0.951159676336081    0.891849805132623  0.0000
  Si     Si        0.325370107040769    0.238434545635641    0.262670129785208  0.0000
  Si     Si        0.650264840266324    0.310257024595555    0.019187434561205  0.0000
  O1     O1        0.079580598074117    0.204422050627537    0.343007251747792  0.0000
  O1     O1        0.421117241839603    0.742562838256582    0.354443464935254  0.0000
  O1     O1        0.871109652493959    0.098440533237929    0.601834308661007  0.0000
  O1     O1        0.616844007245537    0.865872115201102    0.614510498542903  0.0000
  O1     O1        0.909853748433899    0.747279118190187    0.606751419967881  0.0000
  O1     O1        0.575621536900038    0.215910194532704    0.623350734253300  0.0000
  O1     O1        0.129609078619398    0.865327451152725    0.357997736445494  0.0000
  O3     O3        0.366385380408860    0.085565000512745    0.342591578759144  0.0000
  O1     O1        0.021498534062282    0.987070525292081    0.530037194315890  0.0000
  O1     O1        0.466851852881146    0.977660923010994    0.537782140376254  0.0000
  O3     O3        0.973623894347527    0.944718823102107    0.279299630909675  0.0000
  O1     O1        0.524262129132560    0.005867803186271    0.292513573393554  0.0000
  O1     O1        0.970853496342355    0.966839533230438    0.784261720621605  0.0000
  O3     O3        0.519470556316413    0.987100167271707    0.798596838707849  0.0000
  O3     O3        0.591566070584851    0.202850960650603    0.102238691708335  0.0000
  O3     O3        0.924716233052319    0.748710665878733    0.097091951007416  0.0000
  O3     O3        0.382292721484304    0.092215710831403    0.869429294965793  0.0000
  O1     O1        0.120507861525864    0.868003167724279    0.861723530462835  0.0000
  O3     O3        0.417585448557011    0.764526858228908    0.866294869159992  0.0000
  O1     O1        0.080409388992035    0.211049022770102    0.858424016879414  0.0000
  O1     O1        0.627785683436675    0.845391994773313    0.127804876240838  0.0000
  O3     O3        0.871301209517310    0.067038628718386    0.110371308414046  0.0000
  O3     O3        0.479317031665089    0.958978759315978    0.041020569994888  0.0000
  O3     O3        0.014630764327528    0.005851128335572    0.043197100636669  0.0000
  O1     O1        0.154158309558696    0.513473177525522    0.326480222588567  0.0000
  O3     O3        0.344499531856575    0.422180395976921    0.323545770946913  0.0000
  O1     O1        0.832961192790872    0.438758010786937    0.643716927161465  0.0000
  O1     O1        0.654463514144281    0.521885440589120    0.654170503032036  0.0000
  O3     O3        0.235135642979722    0.209631896665340    0.264285269990751  0.0000
  O1     O1        0.270418680856839    0.737266012094550    0.267844379792300  0.0000
  O1     O1        0.726832639823411    0.197480717079499    0.703903437850903  0.0000
  O1     O1        0.764116142377770    0.757630622780964    0.710503159783532  0.0000
  O1     O1        0.120073356408269    0.337644063389331    0.101163352674608  0.0000
  O1     O1        0.388984812479500    0.619811263499281    0.109866060175051  0.0000
  O1     O1        0.858451096150601    0.217341903737758    0.860357222407957  0.0000
  O1     O1        0.637921529778589    0.739352788160499    0.871137633993204  0.0000
  O1     O1        0.883292376168020    0.613237757582489    0.858719487116097  0.0000
  O3     O3        0.618727288488171    0.335053087219122    0.872921126877332  0.0000
  O1     O1        0.139911874920686    0.731279758934287    0.108737977649487  0.0000
  O3     O3        0.354838425924730    0.239972487348956    0.115384409136431  0.0000
  O3     O3        0.660410427143090    0.496857170664297    0.078519972236741  0.0000
  O1     O1        0.852422963453622    0.426955520135211    0.079104273567022  0.0000
  O1     O1        0.345413729382037    0.442377965266005    0.890500578075967  0.0000
  O1     O1        0.159144662292299    0.522165811581048    0.884978311614847  0.0000
  O3     O3        0.731691606355029    0.208315115909666    0.018474027002700  0.0000
  O1     O1        0.769506571383112    0.736041181153967    0.026667368307589  0.0000
  O1     O1        0.233679021156664    0.204173633044379    0.937295969311868  0.0000
  O1     O1        0.268498979472201    0.751746415381472    0.955368778948920  0.0000
