data_c00612.vasp
_audit_creation_method             Generated by GULP
_audit_author_name                 Salvador R. G. Balestra
_symmetry_space_group_name_H-M     'P 1             '
_symmetry_Int_Tables_number        1

loop_
_symmetry_equiv_pos_site_id
_symmetry_equiv_pos_as_xyz
_cell_length_a                       17.4792
_cell_length_b                        7.8593
_cell_length_c                       10.3853
_cell_angle_alpha                   89.5062
_cell_angle_beta                    90.0057
_cell_angle_gamma                   88.3573

loop_
_atom_site_label
_atom_site_type_symbol
_atom_site_fract_x
_atom_site_fract_y
_atom_site_fract_z
_atom_site_charge
  Ge     Ge        0.052090000000021    0.000000000000000    0.372269999999958  0.0000
  Ge     Ge        0.451292418581351    0.946064628330953    0.385193276271775  0.0000
  Ge     Ge        0.954180220565894    0.936330972759257    0.630785686579575  0.0000
  Ge     Ge        0.553880090783535    0.995323295329671    0.642721271259345  0.0000
  Ge     Ge        0.552328496545936    0.999862842989903    0.125267411452019  0.0000
  Ge     Ge        0.065117132985891    0.002667915555459    0.873501786075522  0.0000
  Ge     Ge        0.149419125264776    0.311615912706502    0.291182055902887  0.0000
  Ge     Ge        0.355517599408552    0.637474565911845    0.304573126321293  0.0000
  Ge     Ge        0.830802510488154    0.225567690320217    0.744212830677671  0.0000
  Ge     Ge        0.677481206883954    0.706268844389942    0.745713608122527  0.0000
  Ge     Ge        0.860195390120145    0.624174197081325    0.741077619092189  0.0000
  Ge     Ge        0.649180547070969    0.307463183969825    0.751790382383787  0.0000
  Ge     Ge        0.175588414534605    0.715680644625868    0.296938694793750  0.0000
  Ge     Ge        0.331551409186057    0.232572965216377    0.294890725895936  0.0000
  Ge     Ge        0.656392753830948    0.309999414713052    0.067667484661726  0.0000
  Ge     Ge        0.861635343816376    0.633022572172143    0.053790394027980  0.0000
  Ge     Ge        0.339469670614076    0.259269022611187    0.984729758694589  0.0000
  Ge     Ge        0.151901583994282    0.325972573865152    0.980893825490127  0.0000
  Ge     Ge        0.678467979033042    0.709836244841457    0.057761241476825  0.0000
  Ge     Ge        0.838675262460849    0.232424580703076    0.058136980817090  0.0000
  Si     Si        0.959284394451812    0.941182664175533    0.116634934962923  0.0000
  Si     Si        0.446785603524333    0.958670275586921    0.880280547463631  0.0000
  Si     Si        0.176710597464649    0.715021929889545    0.992789015549406  0.0000
  Si     Si        0.357139954677612    0.649821829497490    0.000474144633208  0.0000
  O1     O1        0.086691078438157    0.200833282253758    0.384801701084615  0.0000
  O1     O1        0.419059834116903    0.742311937273123    0.398592742750812  0.0000
  O1     O1        0.877515786263004    0.070376619494667    0.659521858244423  0.0000
  O1     O1        0.630850078026956    0.858227418177185    0.654334307910686  0.0000
  O1     O1        0.927273316806432    0.730802055243719    0.654115293758049  0.0000
  O1     O1        0.579096186254797    0.199178926396092    0.675163389459070  0.0000
  O1     O1        0.125103881440467    0.850959530501376    0.394006187812498  0.0000
  O1     O1        0.376798718621559    0.092874664797078    0.397834491092646  0.0000
  O1     O1        0.977321978157308    0.965542021960981    0.470845937894664  0.0000
  O1     O1        0.524865363502315    0.987297153069465    0.484478435771452  0.0000
  O3     O3        0.028451921455892    0.972945104354622    0.210788405145006  0.0000
  O1     O1        0.479243182056968    0.965095457107126    0.225917792006719  0.0000
  O1     O1        0.034845004347281    0.979937621964405    0.718089449984249  0.0000
  O3     O3        0.476051194243442    0.935692257906583    0.735054362879217  0.0000
  O1     O1        0.590211215670504    0.197168404801983    0.150077149739855  0.0000
  O3     O3        0.925998912988585    0.754070699320128    0.137307273842871  0.0000
  O3     O3        0.385641754016095    0.114694819959095    0.885688232833267  0.0000
  O3     O3        0.143880824493114    0.869997785642688    0.907446874164581  0.0000
  O2     O2        0.408408579972789    0.782805666237762    0.924015991336986  0.0000
  O1     O1        0.092477821798676    0.209537135118095    0.887617416279011  0.0000
  O1     O1        0.626783779071751    0.853815362693200    0.145990940050643  0.0000
  O3     O3        0.891926792679847    0.081876086332872    0.142834513581026  0.0000
  O3     O3        0.520568753363841    0.995518414437969    0.966325998911222  0.0000
  O3     O3        0.987360906154904    0.956443794937846    0.968684357867385  0.0000
  O1     O1        0.162095478665336    0.509797832114186    0.350254596531257  0.0000
  O1     O1        0.343748509543734    0.434621961577799    0.355695195347520  0.0000
  O1     O1        0.847077754861579    0.425108699540889    0.680442946105702  0.0000
  O1     O1        0.660371011918990    0.506362305727640    0.686589538491919  0.0000
  O1     O1        0.235577116075788    0.198248516481281    0.286199202747499  0.0000
  O1     O1        0.270926460699322    0.754893288625496    0.307728618370518  0.0000
  O1     O1        0.734454333704053    0.191701985887191    0.742676701992942  0.0000
  O1     O1        0.774174738002935    0.736661346243705    0.741079006891695  0.0000
  O1     O1        0.117111853267517    0.321923671097651    0.134827341904884  0.0000
  O3     O3        0.387319840975546    0.630571393598476    0.145320082212880  0.0000
  O1     O1        0.864913662711906    0.225444315507074    0.899115924496663  0.0000
  O1     O1        0.645671676024888    0.721537406218883    0.901638874083227  0.0000
  O1     O1        0.891200381916786    0.607160864796517    0.897661421218618  0.0000
  O1     O1        0.626969429607790    0.334844014974203    0.910448743658393  0.0000
  O3     O3        0.144922361497673    0.727736846736540    0.137417344477751  0.0000
  O1     O1        0.368528746206165    0.224165844060374    0.140416517343590  0.0000
  O1     O1        0.667331684443814    0.510306387838730    0.125487602410728  0.0000
  O1     O1        0.854228320006080    0.433161391472217    0.118638179886445  0.0000
  O3     O3        0.361472901851124    0.465524763934738    0.935812987561415  0.0000
  O3     O3        0.153143175581530    0.537344266464688    0.930227714094162  0.0000
  O1     O1        0.742708861114266    0.197145707754296    0.069612355352275  0.0000
  O1     O1        0.775060656008202    0.743018527943906    0.054961218074387  0.0000
  O1     O1        0.242834753597765    0.238079661043434    0.974230275707538  0.0000
  O2     O2        0.269023686090156    0.718425333936749    0.004207498745317  0.0000
