data_c00657.vasp
_audit_creation_method             Generated by GULP
_audit_author_name                 Salvador R. G. Balestra
_symmetry_space_group_name_H-M     'P 1             '
_symmetry_Int_Tables_number        1

loop_
_symmetry_equiv_pos_site_id
_symmetry_equiv_pos_as_xyz
_cell_length_a                       17.5747
_cell_length_b                        7.8398
_cell_length_c                       10.2841
_cell_angle_alpha                   89.1966
_cell_angle_beta                    90.1079
_cell_angle_gamma                   91.3186

loop_
_atom_site_label
_atom_site_type_symbol
_atom_site_fract_x
_atom_site_fract_y
_atom_site_fract_z
_atom_site_charge
  Ge     Ge        0.052090000000021    0.000000000000000    0.372269999999958  0.0000
  Ge     Ge        0.449495447668957    0.048978437230239    0.350775147979175  0.0000
  Ge     Ge        0.950072009050962    0.039819161343202    0.629648283099508  0.0000
  Ge     Ge        0.551957508386628    0.974475534118268    0.094748742940860  0.0000
  Ge     Ge        0.945434368917255    0.037714268371549    0.125830688498970  0.0000
  Ge     Ge        0.446819228126782    0.044678874551281    0.841316249418697  0.0000
  Ge     Ge        0.057803661022260    0.995488328674328    0.884073896566635  0.0000
  Ge     Ge        0.174146741494628    0.287105238781117    0.260901514507592  0.0000
  Ge     Ge        0.326586409293701    0.769690943683201    0.264355456422849  0.0000
  Ge     Ge        0.848513756945072    0.352973199481391    0.692960483430875  0.0000
  Ge     Ge        0.642949126066660    0.678704028146955    0.711410489545696  0.0000
  Ge     Ge        0.825316227168215    0.755272209722163    0.701200472405344  0.0000
  Ge     Ge        0.668075897807598    0.275866447725309    0.703376637131527  0.0000
  Ge     Ge        0.147017312288310    0.691146388066584    0.253485184451500  0.0000
  Ge     Ge        0.355714877417914    0.364629590330685    0.268574617672474  0.0000
  Ge     Ge        0.675412305368736    0.262552740661654    0.020471836192580  0.0000
  Ge     Ge        0.829342939576881    0.740128872915299    0.015354602428841  0.0000
  Ge     Ge        0.359413232774461    0.366158329771421    0.954792982768313  0.0000
  Ge     Ge        0.175066485102966    0.295567500967123    0.947078132729555  0.0000
  Ge     Ge        0.648209257303632    0.660664746998325    0.027923564060701  0.0000
  Si     Si        0.549847965699299    0.988239643061619    0.598339931355958  0.0000
  Si     Si        0.156624699868011    0.685510845465380    0.945989511735991  0.0000
  Si     Si        0.333298449529917    0.760049453169334    0.957489308318157  0.0000
  Si     Si        0.851726237807091    0.344260548555535    0.004470511233234  0.0000
  O1     O1        0.127708003651899    0.139656699615514    0.356996313774715  0.0000
  O1     O1        0.373945535369028    0.906953982635414    0.364368881816038  0.0000
  O1     O1        0.916260571560259    0.243532354386940    0.612315100983313  0.0000
  O3     O3        0.575590508933525    0.797531346076200    0.630444892765878  0.0000
  O1     O1        0.874485583537990    0.899999958747938    0.606417348405917  0.0000
  O3     O3        0.618551976090242    0.122689050167813    0.617807894495809  0.0000
  O1     O1        0.076747600101642    0.796938828672679    0.330164534306318  0.0000
  O1     O1        0.417312321731610    0.252013611913536    0.365877151207692  0.0000
  O1     O1        0.025805748884265    0.001083130270276    0.533494680100813  0.0000
  O3     O3        0.525376918290395    0.999566966969521    0.447656858957279  0.0000
  O1     O1        0.973194635481402    0.058214046846403    0.285132956948194  0.0000
  O1     O1        0.479334628113942    0.026944693050567    0.191650209043959  0.0000
  O1     O1        0.979727653397262    0.013038495860946    0.788825442296492  0.0000
  O3     O3        0.475266556216884    0.034330407849327    0.680437230138226  0.0000
  O1     O1        0.629944038604562    0.111366854118830    0.112323620880502  0.0000
  O1     O1        0.877421325441071    0.878495794726693    0.114706446544620  0.0000
  O1     O1        0.421447841297852    0.252364767805473    0.864518197717777  0.0000
  O3     O3        0.105265692940133    0.805645557204389    0.858631505649470  0.0000
  O3     O3        0.368307888363191    0.910276459192490    0.868900301749655  0.0000
  O1     O1        0.123535368952610    0.157151338540990    0.853677901181334  0.0000
  O1     O1        0.584667875322584    0.771415972995245    0.118217904279552  0.0000
  O3     O3        0.915849095612182    0.237527726635497    0.075994819744288  0.0000
  O1     O1        0.522219053237488    0.988268735290309    0.934507142439509  0.0000
  O1     O1        0.026436821944739    0.990767512812186    0.042236422194342  0.0000
  O1     O1        0.158199413911327    0.489976635499558    0.316300824381325  0.0000
  O1     O1        0.342018279254176    0.565332030533591    0.322368539599347  0.0000
  O1     O1        0.838811318639211    0.556129559413938    0.636019933066188  0.0000
  O1     O1        0.651114316279891    0.479277496937568    0.645773701380593  0.0000
  O1     O1        0.270051719919998    0.253454314132110    0.262891795708654  0.0000
  O1     O1        0.231219997949410    0.806841998778332    0.267928629591340  0.0000
  O1     O1        0.763453747693261    0.240348567829487    0.686877061554145  0.0000
  O1     O1        0.729158178507893    0.787186436721765    0.704539584706297  0.0000
  O1     O1        0.142248611909003    0.268150401088299    0.103470364067091  0.0000
  O3     O3        0.361943920814009    0.780652666022986    0.105635369371914  0.0000
  O3     O3        0.874271081867957    0.374812653630687    0.854973524057823  0.0000
  O1     O1        0.616280852056913    0.647483038206830    0.869537506399189  0.0000
  O1     O1        0.859531043310778    0.769946171826862    0.858293289188505  0.0000
  O1     O1        0.641473915355021    0.259240679875623    0.863267618277534  0.0000
  O3     O3        0.123421523109920    0.665733814671221    0.091260358407577  0.0000
  O1     O1        0.390777740255371    0.368832087427937    0.112327136585863  0.0000
  O1     O1        0.658481206412093    0.458743510674856    0.087300421404500  0.0000
  O3     O3        0.842141840545570    0.529206068073850    0.066789837527306  0.0000
  O3     O3        0.356400676549264    0.577543815457783    0.901976453214813  0.0000
  O3     O3        0.160774628503365    0.500253192300347    0.885064531791395  0.0000
  O3     O3        0.772782689133945    0.234682786658156    0.013698430351674  0.0000
  O1     O1        0.733606905516326    0.773272437263163    0.023398138686735  0.0000
  O1     O1        0.271263426192148    0.267576387013766    0.945040317477875  0.0000
  O2     O2        0.241508582855436    0.769525689320262    0.962443532297055  0.0000
