data_c00699.vasp
_audit_creation_method             Generated by GULP
_audit_author_name                 Salvador R. G. Balestra
_symmetry_space_group_name_H-M     'P 1             '
_symmetry_Int_Tables_number        1

loop_
_symmetry_equiv_pos_site_id
_symmetry_equiv_pos_as_xyz
_cell_length_a                       17.4636
_cell_length_b                        7.9335
_cell_length_c                       10.3563
_cell_angle_alpha                   88.1790
_cell_angle_beta                    91.2330
_cell_angle_gamma                   88.6772

loop_
_atom_site_label
_atom_site_type_symbol
_atom_site_fract_x
_atom_site_fract_y
_atom_site_fract_z
_atom_site_charge
  Ge     Ge        0.052090000000021    0.000000000000000    0.372269999999958  0.0000
  Ge     Ge        0.448213192548452    0.962591843218525    0.368686747265177  0.0000
  Ge     Ge        0.944601788639125    0.963676477928703    0.619781901577990  0.0000
  Ge     Ge        0.562800862524783    0.976133155714203    0.131591963871527  0.0000
  Ge     Ge        0.939244119858917    0.953087816046377    0.127279977927911  0.0000
  Ge     Ge        0.449991100502967    0.967624944102819    0.876739464014104  0.0000
  Ge     Ge        0.045123595274331    0.016362189920954    0.879138824669757  0.0000
  Ge     Ge        0.149388865284490    0.314191540236002    0.258926209968651  0.0000
  Ge     Ge        0.356475638381602    0.644796627329800    0.259020581439046  0.0000
  Ge     Ge        0.830429181560855    0.254899553623545    0.697128744577799  0.0000
  Ge     Ge        0.655203475958969    0.696569745633700    0.710515991371803  0.0000
  Ge     Ge        0.840034554714060    0.661242920689340    0.702346275747558  0.0000
  Ge     Ge        0.647124787299109    0.286492690028042    0.702612140065191  0.0000
  Ge     Ge        0.171316274624914    0.710234682913691    0.261115703033862  0.0000
  Ge     Ge        0.849822120660764    0.633758435802046    0.016404222046668  0.0000
  Ge     Ge        0.327065319377892    0.254144420170649    0.948006403545449  0.0000
  Ge     Ge        0.168996415153051    0.724692640424706    0.948543091437030  0.0000
  Ge     Ge        0.352774328720766    0.652855313942551    0.948127448412678  0.0000
  Ge     Ge        0.144718109269414    0.326285800773805    0.943491321592093  0.0000
  Ge     Ge        0.660021367567280    0.662084292346697    0.024180978072689  0.0000
  Si     Si        0.546428313003085    0.995867450665932    0.622519584128880  0.0000
  Si     Si        0.330611606371545    0.252806510576428    0.255389647441150  0.0000
  Si     Si        0.655300274797432    0.277598474620168    0.001512560870507  0.0000
  Si     Si        0.837851110468585    0.250396235905986    0.996822939765729  0.0000
  O1     O1        0.087212695777100    0.197649938898199    0.347324394682456  0.0000
  O1     O1        0.419293893241762    0.759827409273891    0.348190590915812  0.0000
  O1     O1        0.882022456335143    0.133183090117563    0.595840854102968  0.0000
  O3     O3        0.603140838657808    0.834647706925697    0.608385467904140  0.0000
  O1     O1        0.896489152547959    0.779198063192626    0.602830596015284  0.0000
  O3     O3        0.589419972295561    0.171270824143150    0.601555763039225  0.0000
  O1     O1        0.124042351824126    0.855261030812492    0.350125091716532  0.0000
  O3     O3        0.373744580797252    0.105443358119271    0.338796588242015  0.0000
  O1     O1        0.024581827982982    0.979687978842130    0.530929948138093  0.0000
  O3     O3        0.472941061367076    0.982995344321709    0.530774653207699  0.0000
  O1     O1        0.968662654903419    0.969919809303761    0.285131362751651  0.0000
  O1     O1        0.528910936639617    0.005021609024832    0.283454172245242  0.0000
  O1     O1        0.970939504916978    0.968335307280759    0.781669359611421  0.0000
  O3     O3        0.522782824057998    0.995397154204423    0.772420920201027  0.0000
  O3     O3        0.630489693808695    0.126735945273940    0.094044654884184  0.0000
  O1     O1        0.908592504681648    0.751162339202714    0.109732110213055  0.0000
  O1     O1        0.376728928464619    0.116100283175115    0.857764114018589  0.0000
  O1     O1        0.120088791086750    0.874448221191396    0.857949165577279  0.0000
  O1     O1        0.413492144107017    0.770679184170870    0.857229379579324  0.0000
  O1     O1        0.079491069428235    0.216497931674824    0.855784076860492  0.0000
  O1     O1        0.610540713130874    0.785647957172754    0.126685691579611  0.0000
  O3     O3        0.862121285838074    0.090387957059201    0.086083720325375  0.0000
  O1     O1        0.483706378131398    0.989700134681414    0.032329624344881  0.0000
  O1     O1        0.017221835920971    0.999991515439864    0.038282005896524  0.0000
  O1     O1        0.155241904368311    0.510035771986844    0.322049894656250  0.0000
  O3     O3        0.347897652253160    0.435970952396142    0.312237107132848  0.0000
  O1     O1        0.834865868830859    0.461971497661398    0.645885894226931  0.0000
  O1     O1        0.645685645800736    0.494944315279536    0.655772646165239  0.0000
  O3     O3        0.240248038299191    0.220203297028244    0.257699077848168  0.0000
  O1     O1        0.267940554215495    0.742714888130837    0.264351955616228  0.0000
  O1     O1        0.736800599679971    0.196799542114292    0.692113446275507  0.0000
  O1     O1        0.749496297889073    0.750018432007122    0.707264587773120  0.0000
  O1     O1        0.116917708075506    0.331498205710304    0.101893302586796  0.0000
  O1     O1        0.388915338476248    0.645766525067308    0.104498380076634  0.0000
  O3     O3        0.870675247020378    0.232245821942406    0.853731106810282  0.0000
  O1     O1        0.627026664819478    0.705668730642928    0.868562546825058  0.0000
  O1     O1        0.875833301809823    0.657338060032421    0.858581799236523  0.0000
  O3     O3        0.614728706218442    0.272046973001526    0.861133081966774  0.0000
  O1     O1        0.136710178608508    0.725342289160586    0.104839648279838  0.0000
  O3     O3        0.358626416628659    0.249814050489751    0.108483527380416  0.0000
  O3     O3        0.638254862100352    0.454844302056328    0.065883652039426  0.0000
  O3     O3        0.865194971675813    0.421295173427239    0.060626160272319  0.0000
  O1     O1        0.342022849038536    0.457027676488127    0.889238229592820  0.0000
  O1     O1        0.153975178073858    0.528072605341225    0.885618168790635  0.0000
  O2     O2        0.746221870373050    0.274295116505216    0.970076552818545  0.0000
  O1     O1        0.756263050199162    0.695922172309267    0.036486337638566  0.0000
  O1     O1        0.231384660556376    0.216989188011612    0.940272476247604  0.0000
  O1     O1        0.265336062290110    0.757721356172022    0.953166387624225  0.0000
