data_c00662.vasp
_audit_creation_method             Generated by GULP
_audit_author_name                 Salvador R. G. Balestra
_symmetry_space_group_name_H-M     'P 1             '
_symmetry_Int_Tables_number        1

loop_
_symmetry_equiv_pos_site_id
_symmetry_equiv_pos_as_xyz
_cell_length_a                       17.6127
_cell_length_b                        7.9596
_cell_length_c                       10.3850
_cell_angle_alpha                   91.1427
_cell_angle_beta                    90.6590
_cell_angle_gamma                   89.8441

loop_
_atom_site_label
_atom_site_type_symbol
_atom_site_fract_x
_atom_site_fract_y
_atom_site_fract_z
_atom_site_charge
  Ge     Ge        0.052090000000021    0.000000000000000    0.372269999999958  0.0000
  Ge     Ge        0.451772890368468    0.014304092202289    0.403953639747018  0.0000
  Ge     Ge        0.945751211117631    0.999738781344446    0.622601040277444  0.0000
  Ge     Ge        0.556769949474618    0.023438199489733    0.156162002272623  0.0000
  Ge     Ge        0.948637575447214    0.012357635057399    0.114683263051284  0.0000
  Ge     Ge        0.441768683399974    0.995860680447287    0.909876112510055  0.0000
  Ge     Ge        0.057794338896527    0.992386787888471    0.867253867471630  0.0000
  Ge     Ge        0.167654862103920    0.283327512466737    0.295633220510207  0.0000
  Ge     Ge        0.335087589423429    0.723792327555994    0.282345344531582  0.0000
  Ge     Ge        0.828401082430249    0.292494042035269    0.738036138589865  0.0000
  Ge     Ge        0.660509443266369    0.731997861465176    0.733711201285220  0.0000
  Ge     Ge        0.843963088713906    0.694045251162195    0.731767202318230  0.0000
  Ge     Ge        0.644373926424393    0.330161024436752    0.736173460096901  0.0000
  Ge     Ge        0.152838058085684    0.689259816944549    0.288117370615042  0.0000
  Ge     Ge        0.348621104981217    0.316102002278881    0.289377518847900  0.0000
  Ge     Ge        0.646398496447403    0.343323697553360    0.046986276603588  0.0000
  Ge     Ge        0.845795916622685    0.697915290486715    0.042803486555117  0.0000
  Ge     Ge        0.147817732736762    0.668530059612363    0.975187869196216  0.0000
  Ge     Ge        0.335648822696498    0.692020375922083    0.970038118343262  0.0000
  Ge     Ge        0.830630688127691    0.302361930425069    0.050723796086462  0.0000
  Si     Si        0.546569550195254    0.020913621711115    0.662511933183915  0.0000
  Si     Si        0.343188443436852    0.306618244074652    0.988342433649330  0.0000
  Si     Si        0.161649667546820    0.281808753511508    0.994272461486098  0.0000
  Si     Si        0.664928836122812    0.735395803753979    0.036671643623350  0.0000
  O1     O1        0.116990256008656    0.159336570364917    0.395468204310067  0.0000
  O1     O1        0.385908931832653    0.859825906553978    0.377798876084209  0.0000
  O1     O1        0.877901125918739    0.150110906380387    0.647287933973997  0.0000
  O3     O3        0.607335211755217    0.870698138833923    0.644936221547018  0.0000
  O1     O1        0.907170033354283    0.805136187007007    0.643640749411526  0.0000
  O3     O3        0.587012374785764    0.199294607213573    0.642265036567947  0.0000
  O1     O1        0.095540489872713    0.807762695800528    0.386561426633732  0.0000
  O1     O1        0.413731104843247    0.209460131158283    0.378880070776731  0.0000
  O1     O1        0.973822666477164    0.016301170362884    0.465034105722043  0.0000
  O3     O3        0.476960165850076    0.998402655417020    0.565339759383918  0.0000
  O1     O1        0.025296400377799    0.021939119190308    0.212882975118037  0.0000
  O1     O1        0.531194075662393    0.990347349526051    0.312161694984133  0.0000
  O1     O1        0.028085605081260    0.025272361024154    0.712143147434499  0.0000
  O3     O3        0.516993844835020    0.016410334055162    0.809022094908953  0.0000
  O1     O1        0.588197494954229    0.226421553660256    0.140116644794306  0.0000
  O1     O1        0.901074721003395    0.826000416245652    0.136054082591043  0.0000
  O3     O3        0.378876978786513    0.164910582984459    0.898242867021270  0.0000
  O1     O1        0.090639548775886    0.789941249188221    0.880995650849151  0.0000
  O1     O1        0.387707560023328    0.821312289796064    0.875727393508690  0.0000
  O3     O3        0.132390159872449    0.127536635602173    0.907670441338624  0.0000
  O3     O3        0.628409492790748    0.881093916393119    0.122671259087202  0.0000
  O1     O1        0.883073947834711    0.169246776933359    0.142129391365284  0.0000
  O1     O1        0.477621638381643    0.985868758707817    0.063179311081930  0.0000
  O1     O1        0.978894781373825    0.027594437532686    0.958087387155920  0.0000
  O1     O1        0.159377034434251    0.489978517259838    0.344858930861833  0.0000
  O1     O1        0.343414824821523    0.521919151904038    0.337991996144130  0.0000
  O1     O1        0.837545506539814    0.490363671962911    0.676279542008875  0.0000
  O1     O1        0.647233794901376    0.529043302551345    0.676431235848838  0.0000
  O1     O1        0.261110598508880    0.224212390186366    0.303484103720361  0.0000
  O1     O1        0.241149230639834    0.779902419750530    0.283925984273522  0.0000
  O1     O1        0.733742754538187    0.243553579702219    0.739230344827991  0.0000
  O1     O1        0.754515771450298    0.782834460636033    0.723638165781458  0.0000
  O3     O3        0.130967118000388    0.269407434164339    0.138696092735347  0.0000
  O1     O1        0.365427325733230    0.727933054527295    0.126302524398884  0.0000
  O1     O1        0.861441697178784    0.293022534021381    0.893863655160711  0.0000
  O3     O3        0.630090629882736    0.734810409638676    0.892402020567877  0.0000
  O1     O1        0.878518004653401    0.695279725783598    0.887256333972721  0.0000
  O1     O1        0.612255722131843    0.336310330412281    0.891905470825288  0.0000
  O1     O1        0.118818685474636    0.691153497105786    0.131618323726748  0.0000
  O3     O3        0.380052671532057    0.303042970950484    0.130772263794113  0.0000
  O3     O3        0.651427582139754    0.552832927645835    0.097609420111967  0.0000
  O1     O1        0.844946247963793    0.503921636956456    0.108451256675607  0.0000
  O3     O3        0.355265523196470    0.485902480600617    0.924625127940016  0.0000
  O3     O3        0.136825451675895    0.457122728011805    0.931857999958269  0.0000
  O1     O1        0.735811973508474    0.257191381903573    0.053707542570054  0.0000
  O3     O3        0.753869023931757    0.772225448072555    0.025177589442350  0.0000
  O2     O2        0.253045648622536    0.284175754128804    0.012242295341935  0.0000
  O1     O1        0.240263719316320    0.730401996613528    0.957304615278759  0.0000
