data_c00674.vasp
_audit_creation_method             Generated by GULP
_audit_author_name                 Salvador R. G. Balestra
_symmetry_space_group_name_H-M     'P 1             '
_symmetry_Int_Tables_number        1

loop_
_symmetry_equiv_pos_site_id
_symmetry_equiv_pos_as_xyz
_cell_length_a                       17.3941
_cell_length_b                        7.8494
_cell_length_c                       10.3242
_cell_angle_alpha                   92.2561
_cell_angle_beta                    89.9745
_cell_angle_gamma                   87.7961

loop_
_atom_site_label
_atom_site_type_symbol
_atom_site_fract_x
_atom_site_fract_y
_atom_site_fract_z
_atom_site_charge
  Ge     Ge        0.052090000000021    0.000000000000000    0.372269999999958  0.0000
  Ge     Ge        0.457861365492039    0.950798372100116    0.381697152716811  0.0000
  Ge     Ge        0.954626993950881    0.935574012785916    0.628987312194984  0.0000
  Ge     Ge        0.564539031608161    0.042807445787574    0.127675230160590  0.0000
  Ge     Ge        0.951099555514027    0.995376297661182    0.112406323000740  0.0000
  Ge     Ge        0.452789476820769    0.962964709266633    0.884932073754185  0.0000
  Ge     Ge        0.068745627830149    0.015215715316287    0.865592145656821  0.0000
  Ge     Ge        0.147450099756649    0.311695953420769    0.286822210399150  0.0000
  Ge     Ge        0.361798352395542    0.631061512181164    0.321622684384328  0.0000
  Ge     Ge        0.832906071021536    0.234711301886561    0.760989657311012  0.0000
  Ge     Ge        0.666060665560931    0.694954462956873    0.729630396553916  0.0000
  Ge     Ge        0.856463566052237    0.637802888217605    0.725477319717114  0.0000
  Ge     Ge        0.651564309826018    0.292601733154032    0.761676280969404  0.0000
  Ge     Ge        0.180475386136365    0.712811762014433    0.313131896377116  0.0000
  Ge     Ge        0.334374685172145    0.232575044519739    0.295311550166415  0.0000
  Ge     Ge        0.661505351307301    0.357992219907011    0.082475975070721  0.0000
  Ge     Ge        0.186954378791264    0.730464380255071    0.998329207357036  0.0000
  Ge     Ge        0.366496772392249    0.644827099904635    0.003236904537371  0.0000
  Ge     Ge        0.155609724734102    0.331723550836956    0.977548796986142  0.0000
  Ge     Ge        0.841724380343490    0.313385052698619    0.076906052668688  0.0000
  Si     Si        0.553738045635248    0.987349813937771    0.639042848538885  0.0000
  Si     Si        0.851307649335963    0.693523706426503    0.024960511563981  0.0000
  Si     Si        0.339307699844005    0.254830815935061    0.986983313875747  0.0000
  Si     Si        0.668354066090343    0.736298033470454    0.031890355798423  0.0000
  O1     O1        0.083932936934086    0.204757884561667    0.376534765080708  0.0000
  O1     O1        0.430267025624342    0.746502964642729    0.402428057949005  0.0000
  O1     O1        0.880079183869701    0.063518414482632    0.687953330732421  0.0000
  O3     O3        0.621666716266731    0.842337832043243    0.632050241444228  0.0000
  O1     O1        0.920345590081608    0.731910219772438    0.628137622232224  0.0000
  O3     O3        0.581647155174234    0.166472926395134    0.698148308912284  0.0000
  O1     O1        0.127870963612336    0.861092196088977    0.405341415056349  0.0000
  O1     O1        0.373890732101565    0.074962024241114    0.385190602592969  0.0000
  O1     O1        0.975216512112389    0.984114528341760    0.472217467469908  0.0000
  O3     O3        0.525248545687132    0.013355987029636    0.493346749610722  0.0000
  O1     O1        0.023106879904098    0.943706107121417    0.216112278712509  0.0000
  O1     O1        0.496651098563631    0.980667645798864    0.231317274738744  0.0000
  O1     O1        0.039565931984232    0.960894465435282    0.711207341532687  0.0000
  O3     O3        0.482481900917548    0.932162938300973    0.725180144392815  0.0000
  O1     O1        0.600224542658162    0.238082264585345    0.168389394540063  0.0000
  O3     O3        0.881007978969082    0.841412251535671    0.117970952933542  0.0000
  O3     O3        0.373104232863019    0.104392097553482    0.891626058742384  0.0000
  O1     O1        0.145328667475618    0.890147258332542    0.911798152049096  0.0000
  O1     O1        0.434811721885537    0.761060166176561    0.932236695050026  0.0000
  O1     O1        0.100236242275753    0.222046321411033    0.869440828668029  0.0000
  O3     O3        0.643751027685890    0.895991315664006    0.123133333006998  0.0000
  O1     O1        0.905365175155363    0.185737366894589    0.159790916906072  0.0000
  O1     O1        0.522952872497826    0.052146378523484    0.977519260206895  0.0000
  O1     O1        0.988072330395126    0.000995984674158    0.959123513889617  0.0000
  O1     O1        0.130822643924901    0.527234509538134    0.301482278386065  0.0000
  O1     O1        0.382968942758763    0.417384833005527    0.326122451735914  0.0000
  O1     O1        0.875333179158750    0.422709121681884    0.725673641823086  0.0000
  O1     O1        0.627318837207597    0.498585276799072    0.721450289765612  0.0000
  O1     O1        0.240021025058603    0.265634453826746    0.337119085078730  0.0000
  O1     O1        0.269364264329748    0.671290570304011    0.379449929754927  0.0000
  O1     O1        0.741140382820219    0.238886287201489    0.699809379687154  0.0000
  O1     O1        0.761072606124612    0.676037954540178    0.687085807323175  0.0000
  O1     O1        0.137180730985766    0.248747805429878    0.125927254565167  0.0000
  O1     O1        0.361983296701384    0.698781916880434    0.165271851593171  0.0000
  O1     O1        0.833065879572411    0.214849256668418    0.925779938853129  0.0000
  O3     O3        0.647331815191692    0.780524494769665    0.885368484496000  0.0000
  O3     O3        0.874079740592243    0.729134115710128    0.878702416395726  0.0000
  O1     O1        0.662753483705531    0.276133333737627    0.925580432361762  0.0000
  O1     O1        0.192145518145764    0.788126363276468    0.159973810761237  0.0000
  O3     O3        0.340131887608470    0.180825017244185    0.130511079256171  0.0000
  O3     O3        0.627533695923453    0.568947809667973    0.080800976878402  0.0000
  O3     O3        0.884045842895716    0.509180499621380    0.065289933623803  0.0000
  O3     O3        0.388144889593348    0.425962122757360    0.985674844756250  0.0000
  O1     O1        0.135194975778551    0.547169278003560    0.979400451378948  0.0000
  O1     O1        0.752441949724442    0.333999608199008    0.146940535061494  0.0000
  O2     O2        0.758395030130729    0.673280018988709    0.028804655202161  0.0000
  O3     O3        0.253541088127009    0.311522430773305    0.946205938460239  0.0000
  O1     O1        0.278257314010344    0.694542227397742    0.937729759855911  0.0000
