data_c00688.vasp
_audit_creation_method             Generated by GULP
_audit_author_name                 Salvador R. G. Balestra
_symmetry_space_group_name_H-M     'P 1             '
_symmetry_Int_Tables_number        1

loop_
_symmetry_equiv_pos_site_id
_symmetry_equiv_pos_as_xyz
_cell_length_a                       17.5770
_cell_length_b                        7.8480
_cell_length_c                       10.3395
_cell_angle_alpha                   87.9276
_cell_angle_beta                    91.5192
_cell_angle_gamma                   89.0085

loop_
_atom_site_label
_atom_site_type_symbol
_atom_site_fract_x
_atom_site_fract_y
_atom_site_fract_z
_atom_site_charge
  Ge     Ge        0.052090000000021    0.000000000000000    0.372269999999958  0.0000
  Ge     Ge        0.448221390554697    0.032401631457448    0.368987390087462  0.0000
  Ge     Ge        0.941065779132861    0.039571184283812    0.613259341575171  0.0000
  Ge     Ge        0.565019279751778    0.046465852158393    0.143145253384084  0.0000
  Ge     Ge        0.944383082139337    0.025319070525562    0.114816428333264  0.0000
  Ge     Ge        0.447910360089617    0.059156844823983    0.898416300594819  0.0000
  Ge     Ge        0.049438124218671    0.045573417176316    0.871055488302386  0.0000
  Ge     Ge        0.174884004863400    0.276410614849746    0.253782193370482  0.0000
  Ge     Ge        0.334230867789754    0.734335340351682    0.278975826629277  0.0000
  Ge     Ge        0.819674194945752    0.321939762424042    0.691105235340856  0.0000
  Ge     Ge        0.656713893950586    0.794044609926111    0.704511899108524  0.0000
  Ge     Ge        0.838801012903728    0.728433961965280    0.686019766219769  0.0000
  Ge     Ge        0.638467690091768    0.384018596506550    0.704395487493156  0.0000
  Ge     Ge        0.149536201347854    0.690566590692932    0.272187516956387  0.0000
  Ge     Ge        0.647031209352780    0.375564455681876    0.018183764707358  0.0000
  Ge     Ge        0.859319035155877    0.701803545808666    0.996779906025719  0.0000
  Ge     Ge        0.145909517729789    0.719847889246342    0.960202060355531  0.0000
  Ge     Ge        0.329693936809722    0.770576308400196    0.959440887821569  0.0000
  Ge     Ge        0.174191506527459    0.309614592158127    0.943811285201070  0.0000
  Ge     Ge        0.675294431415242    0.775238255102928    0.017139060275737  0.0000
  Si     Si        0.537846838687859    0.085750958500020    0.629135776929510  0.0000
  Si     Si        0.345401148762010    0.347630656260343    0.257481854825877  0.0000
  Si     Si        0.344623112414496    0.384732324544644    0.952302504426497  0.0000
  Si     Si        0.828211217741583    0.310306597696569    0.999185226507331  0.0000
  O1     O1        0.128785036555959    0.126189039755954    0.342993941093644  0.0000
  O1     O1        0.387167698131669    0.866836781835824    0.372521279511208  0.0000
  O1     O1        0.870848395175542    0.195830921829030    0.593000269728735  0.0000
  O3     O3        0.600607957646216    0.936365489371094    0.610741937740994  0.0000
  O1     O1        0.897923161980750    0.847926272288515    0.591279460878071  0.0000
  O3     O3        0.574821538244838    0.270029395229508    0.611956234823985  0.0000
  O1     O1        0.084895408962289    0.792342234514794    0.365659442424018  0.0000
  O3     O3        0.411335712702978    0.207909188256479    0.277849745517891  0.0000
  O1     O1        0.020272168903082    0.049929251956478    0.522307042008503  0.0000
  O3     O3        0.467236770391502    0.075169246615294    0.529330908633156  0.0000
  O1     O1        0.972969298042607    0.037934919871516    0.273454014696771  0.0000
  O1     O1        0.532931378078541    0.000520994104423    0.295265875352656  0.0000
  O1     O1        0.972411051112273    0.069577765101856    0.769825748482461  0.0000
  O3     O3        0.510449465130419    0.061670862459451    0.775592977829620  0.0000
  O1     O1        0.589769071810486    0.255241068690516    0.114845969650669  0.0000
  O1     O1        0.923817980412628    0.815534069637062    0.083380226048004  0.0000
  O3     O3        0.414477073617512    0.264757922812830    0.922439660639358  0.0000
  O1     O1        0.082787219859802    0.838202172813729    0.865291930490825  0.0000
  O1     O1        0.373215528221340    0.927723507467739    0.871851415986168  0.0000
  O1     O1        0.123182542760277    0.183185793493396    0.843336472956790  0.0000
  O1     O1        0.644774223882740    0.924246873062566    0.120183187199279  0.0000
  O3     O3        0.865323600188083    0.156209775472537    0.085364470157326  0.0000
  O1     O1        0.494543935913342    0.984895155819754    0.036578057912390  0.0000
  O1     O1        0.018332772483278    0.091140486059959    0.023438155905744  0.0000
  O1     O1        0.133942837486918    0.475255770432374    0.268594344479004  0.0000
  O3     O3        0.371440490161331    0.528477516151073    0.307877953151717  0.0000
  O1     O1        0.826767197739241    0.528993665884165    0.630857840444955  0.0000
  O1     O1        0.643113995151156    0.591138463181500    0.649387540859552  0.0000
  O3     O3        0.267891161231783    0.281787082395727    0.318767548978280  0.0000
  O1     O1        0.241457428771009    0.727735989297881    0.324273680233419  0.0000
  O1     O1        0.724628139736306    0.278575969661933    0.692376434486382  0.0000
  O1     O1        0.752136971899458    0.834206667729672    0.692834770655958  0.0000
  O1     O1        0.174946464088725    0.214876296906002    0.096506105728848  0.0000
  O1     O1        0.340868322107716    0.809147511987872    0.121770102368221  0.0000
  O3     O3        0.853687329910917    0.307231985626390    0.850785939861738  0.0000
  O1     O1        0.633674148636451    0.800638110837645    0.864596664465060  0.0000
  O1     O1        0.882656532712283    0.711943554025618    0.837334260828803  0.0000
  O1     O1        0.610412350586185    0.381453689699320    0.862480657684379  0.0000
  O1     O1        0.136769735118089    0.777786430745786    0.118126213125966  0.0000
  O2     O2        0.320735079889352    0.388160748781745    0.105011722428735  0.0000
  O1     O1        0.653060234236866    0.574846573878544    0.077202591249879  0.0000
  O3     O3        0.854139840832685    0.491676968190185    0.054047956773166  0.0000
  O3     O3        0.368871638988372    0.575670508521793    0.917415456708058  0.0000
  O1     O1        0.130480088977399    0.506699498112689    0.948056711525650  0.0000
  O3     O3        0.737940166572205    0.290484398123452    0.004783433926410  0.0000
  O1     O1        0.771072810801793    0.795775761229304    0.004429373265185  0.0000
  O3     O3        0.265793751470685    0.330404219132231    0.884168613047815  0.0000
  O1     O1        0.236223562605157    0.768012565195952    0.913480107084500  0.0000
