data_c00658.vasp
_audit_creation_method             Generated by GULP
_audit_author_name                 Salvador R. G. Balestra
_symmetry_space_group_name_H-M     'P 1             '
_symmetry_Int_Tables_number        1

loop_
_symmetry_equiv_pos_site_id
_symmetry_equiv_pos_as_xyz
_cell_length_a                       17.8167
_cell_length_b                        7.8663
_cell_length_c                       10.1957
_cell_angle_alpha                   89.0255
_cell_angle_beta                    90.1785
_cell_angle_gamma                   89.9904

loop_
_atom_site_label
_atom_site_type_symbol
_atom_site_fract_x
_atom_site_fract_y
_atom_site_fract_z
_atom_site_charge
  Ge     Ge        0.052090000000021    0.000000000000000    0.372269999999958  0.0000
  Ge     Ge        0.453718863400821    0.006924585461501    0.406158142890538  0.0000
  Ge     Ge        0.945655313899132    0.038589157140636    0.624627996126861  0.0000
  Ge     Ge        0.554428095035694    0.003321244561143    0.152386381206346  0.0000
  Ge     Ge        0.942954364866365    0.048824413132935    0.120855786504882  0.0000
  Ge     Ge        0.438375601765520    0.064007090457451    0.917688851275293  0.0000
  Ge     Ge        0.054592034409852    0.035895285780274    0.873704504995990  0.0000
  Ge     Ge        0.172126258085068    0.286403191726847    0.291557393288655  0.0000
  Ge     Ge        0.337645956031746    0.723574975736141    0.310084948741750  0.0000
  Ge     Ge        0.841639068362471    0.343659964310651    0.744370162064226  0.0000
  Ge     Ge        0.649240330401374    0.683742674446749    0.721722837549672  0.0000
  Ge     Ge        0.821218576298980    0.754659662700694    0.726914826425169  0.0000
  Ge     Ge        0.660653487425209    0.283241937857632    0.744325584399167  0.0000
  Ge     Ge        0.154372706784758    0.692575440000494    0.314061190411583  0.0000
  Ge     Ge        0.350715106958983    0.318147730305000    0.279549038313147  0.0000
  Ge     Ge        0.662353546812231    0.307187032018729    0.058108964881389  0.0000
  Ge     Ge        0.818389442580942    0.770055589500701    0.054338074271171  0.0000
  Ge     Ge        0.336175227490661    0.375321446333147    0.960828016866918  0.0000
  Ge     Ge        0.159277313878686    0.346037187038387    0.974664152735064  0.0000
  Ge     Ge        0.844964612277157    0.367571482449619    0.059774269645582  0.0000
  Si     Si        0.545942602805555    0.997614005981769    0.673309896098193  0.0000
  Si     Si        0.156592892516632    0.741019344740473    0.009304244386224  0.0000
  Si     Si        0.333868201989396    0.763103578584229    0.002726819619912  0.0000
  Si     Si        0.648343712354518    0.695260378524396    0.041885181115644  0.0000
  O1     O1        0.123347777245469    0.144909864148085    0.386464706544518  0.0000
  O1     O1        0.384351977316620    0.856724436544247    0.411915892692338  0.0000
  O1     O1        0.905025013672688    0.230942926745527    0.655569373941750  0.0000
  O3     O3        0.574916148201797    0.803024643661988    0.664840089248822  0.0000
  O1     O1        0.880996023944527    0.878378729052807    0.637895318836770  0.0000
  O3     O3        0.614698621805597    0.128117037249682    0.655937584296777  0.0000
  O1     O1        0.092335157883026    0.804527987972763    0.406160610586551  0.0000
  O1     O1        0.419817196797497    0.198845031705060    0.350107385922239  0.0000
  O1     O1        0.974953555576615    0.040435028824767    0.463780635192134  0.0000
  O3     O3        0.482522265068863    0.033582357983799    0.566637148936504  0.0000
  O1     O1        0.020250221540753    0.008620219569820    0.211913370357420  0.0000
  O1     O1        0.527384997275123    0.947835300242766    0.309064689738896  0.0000
  O1     O1        0.025962194992004    0.005241239354237    0.714848579902487  0.0000
  O3     O3        0.512377386752509    0.017742746369001    0.817860128904413  0.0000
  O1     O1        0.621045508593152    0.158632459955763    0.159965197564126  0.0000
  O1     O1        0.868590151051564    0.911518244038637    0.142589545482781  0.0000
  O1     O1        0.396870977718382    0.252817268586898    0.872328096751010  0.0000
  O3     O3        0.117762727039466    0.874964997398043    0.912939987564533  0.0000
  O3     O3        0.369014922967076    0.907224687719629    0.911083236775952  0.0000
  O1     O1        0.098024525641521    0.230410381232453    0.883148696549186  0.0000
  O3     O3        0.579508571880517    0.816712336160727    0.072409867034860  0.0000
  O1     O1        0.907723339404922    0.248291559309468    0.149033043048811  0.0000
  O1     O1        0.476107473728324    0.078036793990347    0.071834970610154  0.0000
  O1     O1        0.973059183424751    0.027147057170982    0.960818787878977  0.0000
  O1     O1        0.131610748869988    0.483952266224175    0.312168972860914  0.0000
  O1     O1        0.376198392238076    0.526010918228474    0.305220751942930  0.0000
  O1     O1        0.830726860034527    0.545364917419721    0.682973211267762  0.0000
  O1     O1        0.644175756743922    0.478593084603305    0.668695676452262  0.0000
  O1     O1        0.263062343256035    0.282599881867967    0.346578763955118  0.0000
  O1     O1        0.246569144068233    0.709450446257343    0.361766916639881  0.0000
  O1     O1        0.755465029583742    0.242863746807432    0.745499951584157  0.0000
  O1     O1        0.729112211452393    0.795776669827125    0.686400930884906  0.0000
  O1     O1        0.165762904373540    0.247647269553593    0.126181044796265  0.0000
  O3     O3        0.345880425237077    0.814493111138219    0.153247403445902  0.0000
  O1     O1        0.875884110516473    0.362119773749202    0.900276263056942  0.0000
  O3     O3        0.657536553130794    0.643604425919929    0.890248681254834  0.0000
  O1     O1        0.839189269795611    0.788381561100765    0.890399755558216  0.0000
  O1     O1        0.627885849992413    0.271729401356363    0.903197474755801  0.0000
  O3     O3        0.147546616849610    0.792141317243485    0.159503180160059  0.0000
  O1     O1        0.336225595986488    0.284609307091608    0.116005095173515  0.0000
  O3     O3        0.642910696655861    0.511639468869260    0.113794948095319  0.0000
  O1     O1        0.841438281955856    0.570235238579026    0.113472286984230  0.0000
  O3     O3        0.370532000755490    0.580754098446089    0.970848295644148  0.0000
  O3     O3        0.124246232988604    0.551595955402345    0.991023145360757  0.0000
  O1     O1        0.757206474760378    0.275938742221934    0.060386477837993  0.0000
  O3     O3        0.723183786032542    0.798109060251418    0.082076969214366  0.0000
  O1     O1        0.246302456553710    0.358001899619450    0.902380935050243  0.0000
  O2     O2        0.245551561515806    0.729068415816187    0.977300496412409  0.0000
