data_c00698.vasp
_audit_creation_method             Generated by GULP
_audit_author_name                 Salvador R. G. Balestra
_symmetry_space_group_name_H-M     'P 1             '
_symmetry_Int_Tables_number        1

loop_
_symmetry_equiv_pos_site_id
_symmetry_equiv_pos_as_xyz
_cell_length_a                       17.5865
_cell_length_b                        7.8230
_cell_length_c                       10.3486
_cell_angle_alpha                   88.4731
_cell_angle_beta                    91.1678
_cell_angle_gamma                   89.6033

loop_
_atom_site_label
_atom_site_type_symbol
_atom_site_fract_x
_atom_site_fract_y
_atom_site_fract_z
_atom_site_charge
  Ge     Ge        0.052090000000021    0.000000000000000    0.372269999999958  0.0000
  Ge     Ge        0.448402886306421    0.044563114635971    0.366491246457374  0.0000
  Ge     Ge        0.942437604662362    0.051567739455714    0.613934929061795  0.0000
  Ge     Ge        0.563279455649976    0.070621998113001    0.138848278006141  0.0000
  Ge     Ge        0.942955634742556    0.041050530740735    0.116017334879656  0.0000
  Ge     Ge        0.447374302697096    0.074469407197557    0.894890030515502  0.0000
  Ge     Ge        0.048957459357468    0.053418828335950    0.873606134450062  0.0000
  Ge     Ge        0.175269738147982    0.279060776936937    0.250704287608314  0.0000
  Ge     Ge        0.334486382217977    0.743034647649420    0.278985195085057  0.0000
  Ge     Ge        0.821299352165992    0.332645041114666    0.692622201952765  0.0000
  Ge     Ge        0.657457451198725    0.810823217179082    0.698077568273576  0.0000
  Ge     Ge        0.837253471063973    0.740513754606814    0.682265978541252  0.0000
  Ge     Ge        0.639513235410756    0.399411336614642    0.704634699398970  0.0000
  Ge     Ge        0.149591223998600    0.692935113864246    0.275800628782519  0.0000
  Ge     Ge        0.644282125562535    0.400471727273608    0.017603883467974  0.0000
  Ge     Ge        0.144537405035792    0.728794008971393    0.964923618283122  0.0000
  Ge     Ge        0.328470347296307    0.785490869005302    0.960764229071207  0.0000
  Ge     Ge        0.174945763353044    0.318319900220448    0.941656016279062  0.0000
  Ge     Ge        0.675996018493816    0.803643168467303    0.011989768712882  0.0000
  Ge     Ge        0.827685349018390    0.334885906859782    0.004367223793535  0.0000
  Si     Si        0.538258669586573    0.098645189849941    0.625914793254814  0.0000
  Si     Si        0.345677042539464    0.355773031267664    0.254002390546158  0.0000
  Si     Si        0.853330153657848    0.731423175618110    0.990128629916117  0.0000
  Si     Si        0.344997156975509    0.398661638493009    0.948981235668460  0.0000
  O1     O1        0.128687217667522    0.126059960155926    0.336848047453812  0.0000
  O1     O1        0.387821122985817    0.876576762373110    0.372906496163779  0.0000
  O1     O1        0.871501069209819    0.203982902985282    0.593142627911420  0.0000
  O3     O3        0.600017488380079    0.948342001989110    0.605255833797399  0.0000
  O1     O1        0.901349889545120    0.854579832456536    0.594470309363233  0.0000
  O3     O3        0.576959337372126    0.282551148962134    0.611126785494585  0.0000
  O1     O1        0.086283561687886    0.792964397445136    0.373304264953181  0.0000
  O3     O3        0.411475529786547    0.217209581524053    0.274176897133830  0.0000
  O1     O1        0.020634817163361    0.063038018706207    0.520154478984151  0.0000
  O3     O3        0.467957554692180    0.090787021717431    0.526073720894467  0.0000
  O1     O1        0.972737942808370    0.023841298281667    0.274061753594676  0.0000
  O1     O1        0.532850779178236    0.015918126239126    0.290544281835994  0.0000
  O1     O1        0.973430759956041    0.078868231603073    0.770556488553814  0.0000
  O3     O3        0.510007827058427    0.072124762391981    0.771636708246128  0.0000
  O1     O1        0.583736174623579    0.283039220496655    0.112559183345517  0.0000
  O3     O3        0.917510263609175    0.840072575888596    0.061419029606489  0.0000
  O3     O3        0.415173448620546    0.282061658791288    0.915484776152005  0.0000
  O1     O1        0.081462687257786    0.845418728189995    0.871167948671877  0.0000
  O1     O1        0.371256242440787    0.943802674001788    0.872399478622622  0.0000
  O1     O1        0.123501825286603    0.190012313296964    0.842283825809242  0.0000
  O1     O1        0.645017991796344    0.956312026594721    0.111906069890259  0.0000
  O1     O1        0.871355971103434    0.190076605792050    0.107951918620547  0.0000
  O1     O1        0.494062288049799    0.002459393148939    0.032136694568805  0.0000
  O1     O1        0.017467034815618    0.107439337030884    0.024637864497541  0.0000
  O1     O1        0.134018973293175    0.477000323134775    0.269224586161990  0.0000
  O3     O3        0.371838565936703    0.537653873453930    0.305474111043976  0.0000
  O1     O1        0.827112973432511    0.538466952600060    0.628603067303287  0.0000
  O1     O1        0.645266895309287    0.604777154091175    0.645790408463909  0.0000
  O3     O3        0.268148254410586    0.287475896125419    0.315128407915712  0.0000
  O1     O1        0.241884895759586    0.732062090304963    0.324920608316916  0.0000
  O1     O1        0.725452300939310    0.292949834225118    0.700841850747757  0.0000
  O1     O1        0.752606787864303    0.852713375419514    0.680050357888151  0.0000
  O1     O1        0.176388927735971    0.220396493206475    0.092705048316280  0.0000
  O1     O1        0.341066677090998    0.821559418514983    0.123275152831080  0.0000
  O1     O1        0.856947148014408    0.311326798249165    0.848778095000015  0.0000
  O1     O1        0.636379644185706    0.823089051159727    0.858822991632566  0.0000
  O3     O3        0.872283023697224    0.715705704908772    0.840112354225333  0.0000
  O1     O1        0.609213778835633    0.406333159687123    0.861126296899893  0.0000
  O1     O1        0.134858063507221    0.783341940108258    0.123787411784089  0.0000
  O2     O2        0.321723189464433    0.396178863672745    0.102118389353993  0.0000
  O1     O1        0.653980219156086    0.603378785249374    0.073072883703911  0.0000
  O3     O3        0.847168828996003    0.542369385469328    0.053054250321858  0.0000
  O3     O3        0.368160491477223    0.591635908071336    0.916674587705316  0.0000
  O1     O1        0.130946859981592    0.514285482670161    0.949948452602437  0.0000
  O1     O1        0.731948323968053    0.303205714653733    0.012429289825305  0.0000
  O3     O3        0.772976078170130    0.829748214157955    0.999482810729705  0.0000
  O3     O3        0.266214179384713    0.343310711652137    0.880848414724170  0.0000
  O1     O1        0.234807054292327    0.781954438733276    0.918365020262791  0.0000
