data_c00684.vasp
_audit_creation_method             Generated by GULP
_audit_author_name                 Salvador R. G. Balestra
_symmetry_space_group_name_H-M     'P 1             '
_symmetry_Int_Tables_number        1

loop_
_symmetry_equiv_pos_site_id
_symmetry_equiv_pos_as_xyz
_cell_length_a                       17.5300
_cell_length_b                        7.8717
_cell_length_c                       10.2280
_cell_angle_alpha                   89.5312
_cell_angle_beta                    91.3308
_cell_angle_gamma                   87.7135

loop_
_atom_site_label
_atom_site_type_symbol
_atom_site_fract_x
_atom_site_fract_y
_atom_site_fract_z
_atom_site_charge
  Ge     Ge        0.052090000000021    0.000000000000000    0.372269999999958  0.0000
  Ge     Ge        0.448203184293411    0.948056576204708    0.414472569818806  0.0000
  Ge     Ge        0.947183415969611    0.940756447520073    0.620166024583567  0.0000
  Ge     Ge        0.558307663167557    0.998773463786574    0.171741542449132  0.0000
  Ge     Ge        0.949881272305685    0.942897296047797    0.111445307434116  0.0000
  Ge     Ge        0.450712287714192    0.940616615519145    0.914173828078037  0.0000
  Ge     Ge        0.057735890571306    0.994807501760665    0.866969331543910  0.0000
  Ge     Ge        0.150906429966801    0.309039928859788    0.302205729211044  0.0000
  Ge     Ge        0.357522149478469    0.632495048215012    0.299570411815236  0.0000
  Ge     Ge        0.825005863933897    0.234325906807970    0.738633763101516  0.0000
  Ge     Ge        0.666680017416563    0.710763723294543    0.736358375876049  0.0000
  Ge     Ge        0.851020659494745    0.634375061865215    0.732592494043360  0.0000
  Ge     Ge        0.642855511400019    0.309788120411423    0.736310567410259  0.0000
  Ge     Ge        0.174557492822281    0.707570663651597    0.301773267885384  0.0000
  Ge     Ge        0.649188580460258    0.311921367032475    0.054705553208249  0.0000
  Ge     Ge        0.857483676208630    0.623625573205065    0.047418280923566  0.0000
  Ge     Ge        0.328207009329184    0.233947055767223    0.985732067247005  0.0000
  Ge     Ge        0.352998581414507    0.631459249354446    0.984464369303574  0.0000
  Ge     Ge        0.145356369324862    0.311622642708978    0.987030242478975  0.0000
  Ge     Ge        0.674610507288114    0.709382612336373    0.052545816917116  0.0000
  Si     Si        0.548713300346968    0.001879331925027    0.665461346668985  0.0000
  Si     Si        0.331310164741657    0.238196712835639    0.295096780089062  0.0000
  Si     Si        0.172606469119498    0.705272730390143    0.991979371020096  0.0000
  Si     Si        0.828754647156848    0.235461551433081    0.050116213636128  0.0000
  O1     O1        0.092653570587071    0.192555529024150    0.396780012858242  0.0000
  O1     O1        0.420681775910339    0.743535572257412    0.392795607341573  0.0000
  O1     O1        0.873829157403900    0.082499239899461    0.653991366267019  0.0000
  O3     O3        0.616030373577439    0.860943794238193    0.640816063338924  0.0000
  O1     O1        0.914668436171657    0.740323133464086    0.640354764670512  0.0000
  O3     O3        0.579041585635551    0.190149343206817    0.647230474304155  0.0000
  O1     O1        0.124243070266369    0.847137732002768    0.395608342607793  0.0000
  O3     O3        0.373099324638885    0.091608531721911    0.382044828954305  0.0000
  O1     O1        0.972698995133181    0.967244367501044    0.459363553549897  0.0000
  O3     O3        0.474184247379700    0.971120311238305    0.578235968889332  0.0000
  O1     O1        0.025338412865568    0.989169355855643    0.208583936890219  0.0000
  O1     O1        0.528103814304288    0.989825794747354    0.329588871528693  0.0000
  O1     O1        0.030386495006128    0.977489282256890    0.705582468999244  0.0000
  O3     O3        0.526237057416794    0.980133896191677    0.817547338814696  0.0000
  O1     O1        0.586050714212015    0.202402168450377    0.142577259644392  0.0000
  O1     O1        0.917903538797073    0.741798743110370    0.140142164867581  0.0000
  O1     O1        0.377005693772847    0.089930336203547    0.894384584258051  0.0000
  O3     O3        0.133123898031638    0.852699465203530    0.902982939632245  0.0000
  O1     O1        0.411268949178733    0.746558121810512    0.889441352405720  0.0000
  O1     O1        0.082758310683917    0.201355328721372    0.893086153511081  0.0000
  O1     O1        0.635721629498338    0.862679283670470    0.149691587015139  0.0000
  O3     O3        0.874692694526689    0.091393123146342    0.132872435003711  0.0000
  O1     O1        0.482855634119615    0.944238053477726    0.074088690608875  0.0000
  O1     O1        0.978095042396589    0.948278897174370    0.951475359266801  0.0000
  O1     O1        0.157881923139385    0.507693384628386    0.362521686834410  0.0000
  O3     O3        0.347627783545237    0.424247410708896    0.352457762421054  0.0000
  O1     O1        0.839435509443954    0.432969962664593    0.674480499609722  0.0000
  O1     O1        0.649725739589007    0.510920508682982    0.675017466615247  0.0000
  O3     O3        0.241130261376283    0.210446982637409    0.291717643959774  0.0000
  O1     O1        0.270171368629973    0.738829279175502    0.309095725519048  0.0000
  O1     O1        0.729474383060793    0.199438651555461    0.732387941678791  0.0000
  O1     O1        0.762882018148661    0.740895138932945    0.731160321684114  0.0000
  O1     O1        0.114508222200060    0.315241931568667    0.144317970877223  0.0000
  O1     O1        0.388933252477965    0.628052945822345    0.142755710836431  0.0000
  O3     O3        0.856341299733181    0.233344477620032    0.900641297031865  0.0000
  O1     O1        0.636982533356582    0.720821250766841    0.895373593544615  0.0000
  O1     O1        0.888024906735563    0.618682826251770    0.889281800327746  0.0000
  O1     O1        0.615708567946800    0.327233623844717    0.895811408328015  0.0000
  O3     O3        0.142001703911607    0.716148071313969    0.139259918564741  0.0000
  O3     O3        0.361550396988141    0.227394244206603    0.147629920094487  0.0000
  O1     O1        0.657165396445739    0.511402740935667    0.116334256445473  0.0000
  O3     O3        0.846979397524378    0.420949594381072    0.108490744246907  0.0000
  O1     O1        0.346051421569663    0.432767666428959    0.924199957871964  0.0000
  O3     O3        0.154567387133054    0.520077199139492    0.934251902504139  0.0000
  O3     O3        0.738721481433457    0.208031149539407    0.053330556601784  0.0000
  O1     O1        0.770530759269122    0.732080951871921    0.042159479731491  0.0000
  O1     O1        0.232572827514687    0.204859492082275    0.978672611352471  0.0000
  O3     O3        0.262897166315391    0.729526303334240    0.996558625530262  0.0000
