data_c00619.vasp
_audit_creation_method             Generated by GULP
_audit_author_name                 Salvador R. G. Balestra
_symmetry_space_group_name_H-M     'P 1             '
_symmetry_Int_Tables_number        1

loop_
_symmetry_equiv_pos_site_id
_symmetry_equiv_pos_as_xyz
_cell_length_a                       17.5264
_cell_length_b                        7.8165
_cell_length_c                       10.3766
_cell_angle_alpha                   87.4471
_cell_angle_beta                    90.8774
_cell_angle_gamma                   88.9793

loop_
_atom_site_label
_atom_site_type_symbol
_atom_site_fract_x
_atom_site_fract_y
_atom_site_fract_z
_atom_site_charge
  Ge     Ge        0.052090000000021    0.000000000000000    0.372269999999958  0.0000
  Ge     Ge        0.444601157598094    0.036792685441910    0.368314571685871  0.0000
  Ge     Ge        0.947379527420723    0.043219936367433    0.621855344638681  0.0000
  Ge     Ge        0.536484387082640    0.098075230402458    0.632847227251896  0.0000
  Ge     Ge        0.560343568373501    0.066323128782412    0.141640320555118  0.0000
  Ge     Ge        0.052423195425159    0.065254504209512    0.886474259999388  0.0000
  Ge     Ge        0.173246172355690    0.280011473716627    0.248089315977144  0.0000
  Ge     Ge        0.334267712813159    0.733818771745061    0.293084701398534  0.0000
  Ge     Ge        0.824046470650398    0.324750308654861    0.701374337313794  0.0000
  Ge     Ge        0.664420045993400    0.809598846981259    0.706171783695582  0.0000
  Ge     Ge        0.844629964296174    0.731347746351233    0.691373013716111  0.0000
  Ge     Ge        0.643090505623459    0.398134540756164    0.714542715297372  0.0000
  Ge     Ge        0.149373306038508    0.689938344599562    0.279937191257601  0.0000
  Ge     Ge        0.646923661321180    0.392428335363088    0.028034928035760  0.0000
  Ge     Ge        0.861430452707703    0.719747607785693    0.004989102366588  0.0000
  Ge     Ge        0.347271731405478    0.410336185188316    0.943925250275278  0.0000
  Ge     Ge        0.334864807413126    0.797168715029374    0.978110807808712  0.0000
  Ge     Ge        0.172345022672276    0.347290714417850    0.940394412591281  0.0000
  Ge     Ge        0.677282992068097    0.797589421684936    0.018956706791373  0.0000
  Ge     Ge        0.831825738995888    0.318308013854232    0.015313645977368  0.0000
  Si     Si        0.946662284113040    0.030975953982119    0.123257030173558  0.0000
  Si     Si        0.446439884064096    0.081539693003229    0.901209625058053  0.0000
  Si     Si        0.343785143726644    0.351260753018553    0.254200498087113  0.0000
  Si     Si        0.152955146967483    0.745052498616225    0.978302479333957  0.0000
  O1     O1        0.129697849547234    0.119525810697190    0.332694514723535  0.0000
  O1     O1        0.386232052385579    0.865748430363212    0.387270348825688  0.0000
  O1     O1        0.875342544416011    0.196353196439337    0.604336548266717  0.0000
  O1     O1        0.606955920548621    0.945608759067661    0.612343521886056  0.0000
  O1     O1        0.907655864882869    0.846984968219488    0.599978126624431  0.0000
  O1     O1        0.575887802757624    0.295989582765317    0.625937401980811  0.0000
  O1     O1        0.084180775731914    0.790368887524946    0.373094575573458  0.0000
  O3     O3        0.408450813978568    0.206326424110365    0.268228761127146  0.0000
  O1     O1        0.022130292012340    0.063938831953468    0.519445628339774  0.0000
  O1     O1        0.464024547712544    0.096678579881092    0.521574530675375  0.0000
  O3     O3        0.973173954469069    0.029025017418640    0.271339294059904  0.0000
  O1     O1        0.529029456631042    0.002038121721396    0.291338827546191  0.0000
  O1     O1        0.979203156049278    0.059528665982851    0.778258039101802  0.0000
  O3     O3        0.499870329493922    0.047447215768313    0.783503395084943  0.0000
  O1     O1        0.584987323510775    0.277626531192368    0.123685254324099  0.0000
  O3     O3        0.929941549540937    0.838548937298285    0.080483123562231  0.0000
  O3     O3        0.422448915565418    0.281885318511702    0.902940430352662  0.0000
  O3     O3        0.100321659605105    0.868979143544716    0.887804538712863  0.0000
  O3     O3        0.367966240271400    0.976900921957420    0.896247271283082  0.0000
  O1     O1        0.113633814572374    0.228278700258214    0.847317999234487  0.0000
  O1     O1        0.641326024893087    0.948247045751424    0.115312525466933  0.0000
  O3     O3        0.872043769588380    0.151199476599484    0.108443198204345  0.0000
  O3     O3        0.489687630644437    0.014631043123885    0.031672090069199  0.0000
  O3     O3        0.013847413476487    0.108264343908311    0.035402354868283  0.0000
  O1     O1        0.131010002844980    0.476554876989353    0.273008103669057  0.0000
  O3     O3        0.371576256813055    0.526119051955836    0.314170859486560  0.0000
  O1     O1        0.830549261054156    0.532150905941469    0.637164823123257  0.0000
  O1     O1        0.653643117110438    0.603281262774059    0.656623520191887  0.0000
  O3     O3        0.265752202472358    0.282404299479943    0.314407964199993  0.0000
  O1     O1        0.240892917158615    0.721552686640901    0.335893447562815  0.0000
  O1     O1        0.728025211658712    0.283295577165222    0.707702576361589  0.0000
  O1     O1        0.760258795814762    0.849045840934295    0.694204324469617  0.0000
  O1     O1        0.174883166911492    0.236046660910508    0.088158375277644  0.0000
  O1     O1        0.346272296039753    0.821984282249612    0.140144920427502  0.0000
  O1     O1        0.859147126505769    0.309284595494978    0.857594641455160  0.0000
  O1     O1        0.639786933795241    0.821707709437730    0.865087129140664  0.0000
  O1     O1        0.882481457024899    0.706466529628960    0.845712422327167  0.0000
  O1     O1        0.613169572807718    0.397029959480482    0.871573526101205  0.0000
  O3     O3        0.142717024126286    0.790609770760489    0.126847408623583  0.0000
  O3     O3        0.320469828549717    0.405932926932798    0.105673924689182  0.0000
  O1     O1        0.655934060077160    0.595188532359985    0.080299096461385  0.0000
  O1     O1        0.856937221076339    0.514719506265874    0.071246976398863  0.0000
  O1     O1        0.377779450358576    0.616145233509440    0.920912280212825  0.0000
  O3     O3        0.131876376513149    0.548017550231889    0.960621740431380  0.0000
  O1     O1        0.735475883381476    0.294704650431294    0.025357513060059  0.0000
  O1     O1        0.773992878698124    0.819935829272020    0.013337484493981  0.0000
  O1     O1        0.261442142175101    0.362736486342181    0.873067163811997  0.0000
  O3     O3        0.240385008267672    0.767955496972145    0.938387018048593  0.0000
