data_c00625.vasp
_audit_creation_method             Generated by GULP
_audit_author_name                 Salvador R. G. Balestra
_symmetry_space_group_name_H-M     'P 1             '
_symmetry_Int_Tables_number        1

loop_
_symmetry_equiv_pos_site_id
_symmetry_equiv_pos_as_xyz
_cell_length_a                       17.5527
_cell_length_b                        7.8443
_cell_length_c                       10.2961
_cell_angle_alpha                   90.7077
_cell_angle_beta                    90.2300
_cell_angle_gamma                   91.5521

loop_
_atom_site_label
_atom_site_type_symbol
_atom_site_fract_x
_atom_site_fract_y
_atom_site_fract_z
_atom_site_charge
  Ge     Ge        0.052090000000021    0.000000000000000    0.372269999999958  0.0000
  Ge     Ge        0.442567323649816    0.056639625906207    0.387229266611664  0.0000
  Ge     Ge        0.948804147460298    0.045783271546349    0.628191600445992  0.0000
  Ge     Ge        0.545373338724974    0.991452590975208    0.640275257167565  0.0000
  Ge     Ge        0.552190926602345    0.992707229982648    0.140647189642799  0.0000
  Ge     Ge        0.049488282415179    0.996635842540654    0.891769549143492  0.0000
  Ge     Ge        0.170043541890599    0.297960404539597    0.265808114483407  0.0000
  Ge     Ge        0.323118038817468    0.767673832375947    0.269238019195830  0.0000
  Ge     Ge        0.851589676364530    0.358443735991793    0.703572022703183  0.0000
  Ge     Ge        0.644550282353954    0.678503125591434    0.709501225225096  0.0000
  Ge     Ge        0.825359191998666    0.761286471897324    0.707939453284835  0.0000
  Ge     Ge        0.670761059400297    0.276620822848698    0.710221234023959  0.0000
  Ge     Ge        0.351809918206972    0.369853880420721    0.274417627437979  0.0000
  Ge     Ge        0.673115681763270    0.278377972572746    0.025688824181666  0.0000
  Ge     Ge        0.828859164645337    0.761031825712783    0.023316188429335  0.0000
  Ge     Ge        0.349739804589249    0.353823095800040    0.957193334211635  0.0000
  Ge     Ge        0.149324125487112    0.682082762682517    0.950784791696284  0.0000
  Ge     Ge        0.331830911192172    0.753751945581005    0.954556047762129  0.0000
  Ge     Ge        0.646138048523927    0.679626809470924    0.025460969831197  0.0000
  Ge     Ge        0.855744642190901    0.357730833627907    0.019066754745257  0.0000
  Si     Si        0.944223298793760    0.049463406725840    0.135448503605582  0.0000
  Si     Si        0.449000346473163    0.046803528868645    0.893580801287753  0.0000
  Si     Si        0.145060039254244    0.692762521836240    0.257746182319843  0.0000
  Si     Si        0.170357065299124    0.286096021424531    0.958569149606468  0.0000
  O1     O1        0.120756482637292    0.157092765262407    0.359677494523055  0.0000
  O1     O1        0.362955239088780    0.930256064201622    0.358571435455655  0.0000
  O1     O1        0.914132749460528    0.246699855061157    0.609958100944115  0.0000
  O1     O1        0.578770259498686    0.789289041498281    0.622761848493245  0.0000
  O1     O1        0.874621876890575    0.899199688039704    0.610718989906196  0.0000
  O1     O1        0.619416921781021    0.134943355990330    0.615175236527588  0.0000
  O3     O3        0.084588748810833    0.798711743988857    0.339174782433864  0.0000
  O1     O1        0.419194691312793    0.263937784722010    0.360116440550262  0.0000
  O1     O1        0.023990326243958    0.000809658144888    0.532111085615367  0.0000
  O1     O1        0.468293916299023    0.030608660272290    0.546933360342567  0.0000
  O3     O3        0.971037543711941    0.045145410613688    0.284661397634093  0.0000
  O1     O1        0.520175131734776    0.999358184412203    0.297636363075806  0.0000
  O1     O1        0.977432823854514    0.036100074689771    0.789420165108364  0.0000
  O3     O3        0.520670462416732    0.018488558299937    0.803468578839020  0.0000
  O1     O1        0.628602437857224    0.130295926291315    0.121416434247068  0.0000
  O3     O3        0.872588287929704    0.920323565991409    0.115624859241021  0.0000
  O3     O3        0.410487645917119    0.228050066270224    0.869420173108930  0.0000
  O1     O1        0.086498576130194    0.797440218871563    0.863983085496429  0.0000
  O3     O3        0.385100301762305    0.898815859957074    0.866905105346925  0.0000
  O3     O3        0.123581411008906    0.146852198546745    0.874636433788103  0.0000
  O1     O1        0.579522166304482    0.787824529590089    0.111559959160530  0.0000
  O3     O3        0.922165006672147    0.241708796746946    0.101806038859102  0.0000
  O3     O3        0.475989140862570    0.046989746377693    0.043670106535967  0.0000
  O3     O3        0.015819435275384    0.992992836153927    0.049758249516951  0.0000
  O3     O3        0.155355934380338    0.506686135465958    0.317381094883228  0.0000
  O1     O1        0.342707449122339    0.573004617434826    0.334865586788190  0.0000
  O1     O1        0.837372401904447    0.557565709233061    0.646267862742966  0.0000
  O1     O1        0.657221651367258    0.478355156304375    0.649100661860064  0.0000
  O1     O1        0.265115585553731    0.262111929943837    0.280167327533653  0.0000
  O3     O3        0.225930477797941    0.795633660777293    0.260238317452151  0.0000
  O1     O1        0.766597658315733    0.241743061199033    0.707847965393540  0.0000
  O1     O1        0.729369487442526    0.796034951896265    0.709923354667003  0.0000
  O3     O3        0.140180795037727    0.275596931912935    0.106170092565763  0.0000
  O1     O1        0.359412572575466    0.769512635631522    0.114627414317775  0.0000
  O1     O1        0.884399946819544    0.378619263006584    0.861142143065616  0.0000
  O1     O1        0.615229557791291    0.659328304236463    0.867682793334096  0.0000
  O1     O1        0.859367791364838    0.774425100029592    0.865423031153711  0.0000
  O1     O1        0.640097948084165    0.264905212789888    0.868703852252358  0.0000
  O3     O3        0.117682588109302    0.673532833905995    0.109750736004983  0.0000
  O1     O1        0.379492111332372    0.380717391640208    0.114837475709797  0.0000
  O1     O1        0.657240888952698    0.480010709651132    0.086835906650520  0.0000
  O1     O1        0.847610106276590    0.560907519402396    0.081483878872703  0.0000
  O1     O1        0.346926984519769    0.552250603240708    0.892072419418665  0.0000
  O3     O3        0.157585939907754    0.473278544531274    0.899043085680803  0.0000
  O1     O1        0.769619209861593    0.249509104630045    0.024363305397171  0.0000
  O1     O1        0.732447554895141    0.789611491165103    0.027708135053389  0.0000
  O3     O3        0.260259292208887    0.253582734194140    0.959289111092659  0.0000
  O1     O1        0.236175432643853    0.787085150628349    0.943717090685974  0.0000
