data_c00664.vasp
_audit_creation_method             Generated by GULP
_audit_author_name                 Salvador R. G. Balestra
_symmetry_space_group_name_H-M     'P 1             '
_symmetry_Int_Tables_number        1

loop_
_symmetry_equiv_pos_site_id
_symmetry_equiv_pos_as_xyz
_cell_length_a                       17.5783
_cell_length_b                        7.7937
_cell_length_c                       10.2971
_cell_angle_alpha                   90.2706
_cell_angle_beta                    90.1357
_cell_angle_gamma                   91.5226

loop_
_atom_site_label
_atom_site_type_symbol
_atom_site_fract_x
_atom_site_fract_y
_atom_site_fract_z
_atom_site_charge
  Ge     Ge        0.052090000000021    0.000000000000000    0.372269999999958  0.0000
  Ge     Ge        0.451157908050689    0.054131013795105    0.386607456639046  0.0000
  Ge     Ge        0.946170198980487    0.059323053152135    0.620208300109235  0.0000
  Ge     Ge        0.553262276371923    0.003398850687905    0.125988895947365  0.0000
  Ge     Ge        0.955424153785779    0.072269844809072    0.112949383169261  0.0000
  Ge     Ge        0.442520245961624    0.052738801969397    0.877651961653381  0.0000
  Ge     Ge        0.059653887747918    0.999788173855350    0.860283692165660  0.0000
  Ge     Ge        0.176995239539978    0.280595097563098    0.297079898274610  0.0000
  Ge     Ge        0.327613301356480    0.777059870111873    0.296529798517936  0.0000
  Ge     Ge        0.849357049518582    0.370042106642863    0.738146815264947  0.0000
  Ge     Ge        0.642067923200273    0.696940439419030    0.747300690392820  0.0000
  Ge     Ge        0.823172675106573    0.773783604464236    0.732388679455535  0.0000
  Ge     Ge        0.667870094590182    0.291194672636541    0.744859450860829  0.0000
  Ge     Ge        0.148479984090961    0.685890513303736    0.297704005881558  0.0000
  Ge     Ge        0.357030074239307    0.366390369759011    0.299501939000325  0.0000
  Ge     Ge        0.673295755403881    0.301317192806859    0.061091185986994  0.0000
  Ge     Ge        0.829061923553372    0.783716937929352    0.046506619801390  0.0000
  Ge     Ge        0.150527298568295    0.684172125756227    0.981081189942699  0.0000
  Ge     Ge        0.177964176161662    0.284269668115337    0.983005921794922  0.0000
  Ge     Ge        0.853034012742611    0.382671559740497    0.058737386524120  0.0000
  Si     Si        0.548085990793045    0.003679139697367    0.638713166809426  0.0000
  Si     Si        0.356736967782034    0.366571691976851    0.995856862782184  0.0000
  Si     Si        0.329400557694157    0.762382957640564    0.990092371231014  0.0000
  Si     Si        0.652776875852051    0.698100974119769    0.054762473760384  0.0000
  O1     O1        0.127091434689942    0.143372697794364    0.395738545686952  0.0000
  O1     O1        0.374370618015726    0.913853757426135    0.400362271686639  0.0000
  O1     O1        0.918664191849152    0.263000552532776    0.656744014493337  0.0000
  O3     O3        0.571002829078255    0.811204042435921    0.674584267824646  0.0000
  O1     O1        0.870042221858401    0.921018632418571    0.637692798654063  0.0000
  O3     O3        0.618812888299787    0.134146805726319    0.658776649015281  0.0000
  O1     O1        0.083373954874147    0.794565252094988    0.388702139300600  0.0000
  O1     O1        0.421187748611967    0.261376948269112    0.394352072100348  0.0000
  O1     O1        0.973822163981906    0.047937887976754    0.459544126531404  0.0000
  O3     O3        0.525578654452707    0.011197633832942    0.487368228017045  0.0000
  O1     O1        0.028797845926655    0.020042555894223    0.208957158467560  0.0000
  O1     O1        0.479547230711164    0.014979581982518    0.229075582101093  0.0000
  O1     O1        0.027161498739712    0.004711583168736    0.703026506034820  0.0000
  O3     O3        0.472996272545922    0.055430867109691    0.717537212340207  0.0000
  O1     O1        0.619564003909016    0.166578447269902    0.155439054466813  0.0000
  O1     O1        0.877594583805024    0.934939103313301    0.134086526844028  0.0000
  O3     O3        0.411338062176593    0.259907389366397    0.903946092761911  0.0000
  O1     O1        0.085643272117341    0.793356979272891    0.893136538216387  0.0000
  O3     O3        0.372220545240933    0.894551473907694    0.895120084434281  0.0000
  O1     O1        0.139455129306875    0.128888579524876    0.884415219084177  0.0000
  O3     O3        0.596183750912025    0.805785021887780    0.141586369442224  0.0000
  O1     O1        0.922367404927238    0.275514712930398    0.138973109538985  0.0000
  O1     O1        0.520726545249830    0.014137575677676    0.968534726271693  0.0000
  O1     O1        0.985148204437477    0.064492104041096    0.953311449749102  0.0000
  O1     O1        0.163098911445889    0.486113228455839    0.355824119966852  0.0000
  O1     O1        0.343605831637699    0.570514309228829    0.349534451952932  0.0000
  O1     O1        0.837377963438431    0.570069093089320    0.673677195708291  0.0000
  O1     O1        0.649023891404557    0.492794161287899    0.685865954523590  0.0000
  O1     O1        0.272836209934514    0.247532620704300    0.301543041585038  0.0000
  O1     O1        0.231976280919312    0.808542615739103    0.299312795943977  0.0000
  O1     O1        0.763653898672724    0.257304740903285    0.731946479454939  0.0000
  O1     O1        0.727061899635582    0.807340162144712    0.730808562698648  0.0000
  O1     O1        0.144016258797149    0.265295294457227    0.138952020902139  0.0000
  O3     O3        0.358476213820481    0.795997640165061    0.136116114600928  0.0000
  O1     O1        0.875747820511132    0.399513447414007    0.896552501980251  0.0000
  O3     O3        0.620375415382958    0.668916927779537    0.909573566669473  0.0000
  O1     O1        0.859046757419073    0.794935375642916    0.887398539147584  0.0000
  O1     O1        0.641386409360784    0.275928388158624    0.904268059356707  0.0000
  O1     O1        0.119495902388714    0.669058082215481    0.138352161234983  0.0000
  O3     O3        0.390866905139666    0.367720296454145    0.140416271449863  0.0000
  O3     O3        0.666397955898730    0.512965980816455    0.115322058770257  0.0000
  O1     O1        0.846400865522587    0.587219344507229    0.115389348167728  0.0000
  O2     O2        0.345829495452556    0.563635813012971    0.949993744037908  0.0000
  O1     O1        0.156164535184847    0.480609488431734    0.919891084018408  0.0000
  O1     O1        0.768752897586436    0.264387738746588    0.068347455173040  0.0000
  O3     O3        0.731639252174058    0.808925691617422    0.042912293294079  0.0000
  O3     O3        0.275375601756271    0.268249146384785    0.996040936989385  0.0000
  O3     O3        0.239431706701176    0.788014387762515    0.980906581418094  0.0000
