data_c00647.vasp
_audit_creation_method             Generated by GULP
_audit_author_name                 Salvador R. G. Balestra
_symmetry_space_group_name_H-M     'P 1             '
_symmetry_Int_Tables_number        1

loop_
_symmetry_equiv_pos_site_id
_symmetry_equiv_pos_as_xyz
_cell_length_a                       17.4783
_cell_length_b                        7.8366
_cell_length_c                       10.3012
_cell_angle_alpha                   90.4117
_cell_angle_beta                    91.0417
_cell_angle_gamma                   92.0530

loop_
_atom_site_label
_atom_site_type_symbol
_atom_site_fract_x
_atom_site_fract_y
_atom_site_fract_z
_atom_site_charge
  Ge     Ge        0.052090000000021    0.000000000000000    0.372269999999958  0.0000
  Ge     Ge        0.452155351181066    0.063413616201910    0.380336963550678  0.0000
  Ge     Ge        0.945214840617202    0.052663166524034    0.623095370973103  0.0000
  Ge     Ge        0.553535784471096    0.997697090373056    0.638409506420018  0.0000
  Ge     Ge        0.551141124979945    0.999972390973211    0.120813276836766  0.0000
  Ge     Ge        0.174232378907726    0.285609669288931    0.292947659929770  0.0000
  Ge     Ge        0.329054306599491    0.775358877081065    0.296211237992472  0.0000
  Ge     Ge        0.852810814999489    0.367567970845731    0.734679358608490  0.0000
  Ge     Ge        0.642415123329779    0.677250235193346    0.746019843111131  0.0000
  Ge     Ge        0.825257063175107    0.763504528235325    0.731732422872594  0.0000
  Ge     Ge        0.147698556475081    0.688043276564676    0.292957898812180  0.0000
  Ge     Ge        0.355293446299335    0.372908299059515    0.299860950804644  0.0000
  Ge     Ge        0.679219972784913    0.290846925146380    0.057161592564516  0.0000
  Ge     Ge        0.837107888461162    0.770507992098985    0.046438498357409  0.0000
  Ge     Ge        0.356345986359791    0.364234362738252    0.984532125961256  0.0000
  Ge     Ge        0.145882823671110    0.687664948047308    0.978729019305606  0.0000
  Ge     Ge        0.331102626853602    0.766578146971834    0.981801357448389  0.0000
  Ge     Ge        0.171337561111406    0.285717973903257    0.977219005727353  0.0000
  Ge     Ge        0.653709763345278    0.691304080218700    0.060123976589858  0.0000
  Ge     Ge        0.860989073430200    0.369040509818656    0.051536551158399  0.0000
  Si     Si        0.959208393831364    0.061497309992190    0.111922680626903  0.0000
  Si     Si        0.446221915911160    0.054902028594969    0.872202182277373  0.0000
  Si     Si        0.055515107133434    0.995278108501869    0.865822281951919  0.0000
  Si     Si        0.673578633461590    0.287028570996145    0.747646453573960  0.0000
  O1     O1        0.126563219373537    0.147399069158648    0.393170977375072  0.0000
  O1     O1        0.377709457817398    0.915953089423823    0.397440686168476  0.0000
  O1     O1        0.917157190822855    0.256605699869525    0.648216497895270  0.0000
  O1     O1        0.576649685688542    0.789060819613363    0.658591812204094  0.0000
  O1     O1        0.867566199202641    0.917178411200670    0.638023159265018  0.0000
  O3     O3        0.631227235625154    0.133721819203813    0.669727339033393  0.0000
  O1     O1        0.084834658258784    0.797625812253386    0.385743366667425  0.0000
  O1     O1        0.419153247027130    0.265810301992311    0.394837923006094  0.0000
  O1     O1        0.976159863669933    0.036839324666785    0.466227808974852  0.0000
  O1     O1        0.528713325109551    0.025409484787557    0.477891498703148  0.0000
  O3     O3        0.027609723088159    0.025039812206781    0.208537736136618  0.0000
  O1     O1        0.478385592161018    0.040904403130116    0.219651126791467  0.0000
  O3     O3        0.022663804390100    0.000772833193752    0.720120260868040  0.0000
  O3     O3        0.473091845919211    0.048603471166982    0.724006181850811  0.0000
  O1     O1        0.626036743457910    0.147684195951625    0.142321723195748  0.0000
  O3     O3        0.889209152043432    0.925496516074106    0.132412632618081  0.0000
  O3     O3        0.422955087568570    0.247038077929319    0.904399400315614  0.0000
  O3     O3        0.080741241631017    0.803487197174726    0.891124813969740  0.0000
  O3     O3        0.374180376387171    0.924793850917060    0.890375995987189  0.0000
  O3     O3        0.127313370948472    0.127385758594281    0.882199354373100  0.0000
  O1     O1        0.590211705008491    0.804414619285092    0.147569184512467  0.0000
  O3     O3        0.929089961604827    0.251525742996822    0.131724612106346  0.0000
  O3     O3        0.518154858132382    0.001145594528582    0.960514914279663  0.0000
  O2     O2        0.987916481468084    0.047405871215335    0.962793725601314  0.0000
  O1     O1        0.161964485937360    0.489872701362322    0.352525268878101  0.0000
  O1     O1        0.341537252545839    0.572886173331392    0.357608914899506  0.0000
  O1     O1        0.842849209233503    0.564571063653041    0.668602425898372  0.0000
  O3     O3        0.653001012434080    0.470733545379902    0.688009482617573  0.0000
  O1     O1        0.270581601525927    0.252354718921794    0.293474282234696  0.0000
  O1     O1        0.232731731796799    0.807906340255996    0.289827851145983  0.0000
  O3     O3        0.764076900877716    0.260670835302975    0.740592281027137  0.0000
  O1     O1        0.728776003233254    0.787695751812634    0.735584998158439  0.0000
  O1     O1        0.141253983880106    0.273422231634509    0.134263692058451  0.0000
  O1     O1        0.363342014915481    0.784274230683287    0.140006035706160  0.0000
  O1     O1        0.885093703382399    0.390396969033834    0.891839054978514  0.0000
  O1     O1        0.616490656688696    0.671289549165245    0.904463695711952  0.0000
  O1     O1        0.862902040620742    0.776994759668683    0.886730419771173  0.0000
  O3     O3        0.647688997410585    0.286297430690376    0.896431265990604  0.0000
  O1     O1        0.114841774463006    0.668455809452653    0.134847466422375  0.0000
  O1     O1        0.386794937390008    0.388674208083368    0.142747031607001  0.0000
  O1     O1        0.666805657452143    0.492467645526005    0.120473333544732  0.0000
  O1     O1        0.854511514388939    0.572007703992553    0.111581778633821  0.0000
  O1     O1        0.349704285447009    0.566400287501479    0.922135173402278  0.0000
  O1     O1        0.152707583713376    0.484976279644179    0.916504226701077  0.0000
  O1     O1        0.775138297524647    0.255934712559880    0.063298310734814  0.0000
  O1     O1        0.740777901220999    0.802222005693776    0.054804683191427  0.0000
  O1     O1        0.268424311371254    0.260061850061988    0.976096833792743  0.0000
  O1     O1        0.234071187190112    0.791278963782574    0.978386195402833  0.0000
