data_c00750.vasp
_audit_creation_method             Generated by GULP
_audit_author_name                 Salvador R. G. Balestra
_symmetry_space_group_name_H-M     'P 1             '
_symmetry_Int_Tables_number        1

loop_
_symmetry_equiv_pos_site_id
_symmetry_equiv_pos_as_xyz
_cell_length_a                       17.6922
_cell_length_b                        7.7633
_cell_length_c                       10.5349
_cell_angle_alpha                   90.8474
_cell_angle_beta                    90.5528
_cell_angle_gamma                   90.3657

loop_
_atom_site_label
_atom_site_type_symbol
_atom_site_fract_x
_atom_site_fract_y
_atom_site_fract_z
_atom_site_charge
  Ge     Ge        0.052090000000021    0.000000000000000    0.372269999999958  0.0000
  Ge     Ge        0.451888515978472    0.036002975015360    0.377846312652328  0.0000
  Ge     Ge        0.949595727796737    0.977616104873200    0.624088984577452  0.0000
  Ge     Ge        0.547201528746833    0.025460881019916    0.114662033613239  0.0000
  Ge     Ge        0.951654155405494    0.006350851996052    0.113146526665473  0.0000
  Ge     Ge        0.441647821766331    0.027259117176903    0.859089563175884  0.0000
  Ge     Ge        0.060347104896229    0.000030868443999    0.870501531386626  0.0000
  Ge     Ge        0.175212501707910    0.270788032286602    0.283217280219647  0.0000
  Ge     Ge        0.328866691493762    0.762094899598871    0.288453787466506  0.0000
  Ge     Ge        0.825932137061828    0.260829785467686    0.738202536969628  0.0000
  Ge     Ge        0.665144542716944    0.718470939712778    0.726538728507841  0.0000
  Ge     Ge        0.847986109045223    0.667982801825818    0.720653789063025  0.0000
  Ge     Ge        0.149965866721333    0.686904084015909    0.288786258700230  0.0000
  Ge     Ge        0.354097573174066    0.344281952734517    0.281051607857812  0.0000
  Ge     Ge        0.646909001003760    0.344388895171212    0.045314243600608  0.0000
  Ge     Ge        0.851456666301182    0.686916363686139    0.031292977430025  0.0000
  Ge     Ge        0.351876971743130    0.348000155624187    0.973045400152639  0.0000
  Ge     Ge        0.325362860031025    0.757286924293129    0.981651471575600  0.0000
  Ge     Ge        0.672292025339612    0.753583214241753    0.033629391919243  0.0000
  Ge     Ge        0.824628140883374    0.278108301849641    0.047955070164966  0.0000
  Si     Si        0.551634181718663    0.007250131632417    0.627801980933596  0.0000
  Si     Si        0.648530595817824    0.316997639630474    0.741915604329814  0.0000
  Si     Si        0.146763043774218    0.685524693716686    0.991306236879875  0.0000
  Si     Si        0.172442101100780    0.286227478812577    0.983786960369857  0.0000
  O1     O1        0.126781606939155    0.143296648390404    0.384991634921382  0.0000
  O1     O1        0.378445851119876    0.891611693857687    0.393011216712978  0.0000
  O1     O1        0.872864592168574    0.103654846587806    0.658564337269075  0.0000
  O3     O3        0.609794707701971    0.850867512388559    0.634040478667654  0.0000
  O1     O1        0.914368434319126    0.772069026547378    0.631975452797727  0.0000
  O2     O2        0.588317728976803    0.188937660443313    0.673716959641053  0.0000
  O1     O1        0.086038325832055    0.793777623388639    0.381776736712287  0.0000
  O1     O1        0.418012280837596    0.241632380220504    0.376835891081591  0.0000
  O1     O1        0.979056033540768    0.027011404970164    0.473634319560128  0.0000
  O3     O3        0.526158495736683    0.019675383119128    0.482300896733354  0.0000
  O1     O1        0.021569917457682    0.042159060120885    0.220098890549367  0.0000
  O1     O1        0.485084325818443    0.980610076319487    0.229585605296406  0.0000
  O1     O1        0.029420955498354    0.007058430890471    0.716130751020124  0.0000
  O3     O3        0.476195238621634    0.980312646384260    0.709571605899968  0.0000
  O1     O1        0.576995652825948    0.237528921375406    0.122569133371612  0.0000
  O1     O1        0.916274622882310    0.800059191768913    0.120412480601260  0.0000
  O1     O1        0.411851877645157    0.236535727511239    0.876558424122356  0.0000
  O3     O3        0.091967156558599    0.792404011679319    0.901037512482126  0.0000
  O1     O1        0.360998394282580    0.905872946019320    0.882023715456590  0.0000
  O3     O3        0.130327561920929    0.156098451535909    0.887803292239811  0.0000
  O1     O1        0.626677219151942    0.899102206644412    0.125919083074193  0.0000
  O1     O1        0.877539465632543    0.145783212325477    0.138989508482147  0.0000
  O1     O1        0.508623734709026    0.973586192701295    0.968288527877339  0.0000
  O1     O1        0.984246969752336    0.044235296030451    0.962290991225140  0.0000
  O1     O1        0.161881278041796    0.480977769304900    0.334793099063031  0.0000
  O1     O1        0.340937089808400    0.550049814159153    0.331750905105302  0.0000
  O1     O1        0.842264312905175    0.457245885420993    0.670815610727863  0.0000
  O3     O3        0.652834930661769    0.503282292915762    0.678106413443322  0.0000
  O1     O1        0.269998327509583    0.230020564054917    0.286447395529065  0.0000
  O1     O1        0.233656069720470    0.801066539138999    0.295407501403408  0.0000
  O3     O3        0.729065709778388    0.223120640057146    0.737645626385075  0.0000
  O1     O1        0.759714924089566    0.761049257985956    0.710385464142328  0.0000
  O3     O3        0.144295418512317    0.252374441159316    0.125859062627695  0.0000
  O1     O1        0.358926371862893    0.784197329796840    0.134316716920101  0.0000
  O1     O1        0.854778975572637    0.264843331586668    0.893180772479123  0.0000
  O1     O1        0.637974067021606    0.750220245453286    0.879568494782088  0.0000
  O1     O1        0.879762803733934    0.675796265214831    0.875616960284825  0.0000
  O3     O3        0.621991234571389    0.346625332635313    0.885208916759984  0.0000
  O3     O3        0.114912787029895    0.692907092917292    0.133283167682315  0.0000
  O1     O1        0.385653099563517    0.335975119194185    0.126677518517632  0.0000
  O1     O1        0.658070066118345    0.550972174694279    0.097035127426974  0.0000
  O1     O1        0.837252183960870    0.490095599580656    0.095858893662776  0.0000
  O1     O1        0.349258093707021    0.556016133309996    0.925108465933029  0.0000
  O2     O2        0.154537197842907    0.485382818668211    0.946838638572057  0.0000
  O1     O1        0.730187423247802    0.232335413201892    0.058242606406064  0.0000
  O1     O1        0.766914113582876    0.797241346696124    0.027938675678587  0.0000
  O3     O3        0.261711546479604    0.258487344192105    0.975500483330239  0.0000
  O3     O3        0.228480323799896    0.775268190612288    0.990820735844905  0.0000
