data_c00790.vasp
_audit_creation_method             Generated by GULP
_audit_author_name                 Salvador R. G. Balestra
_symmetry_space_group_name_H-M     'P 1             '
_symmetry_Int_Tables_number        1

loop_
_symmetry_equiv_pos_site_id
_symmetry_equiv_pos_as_xyz
_cell_length_a                       17.6254
_cell_length_b                        7.8507
_cell_length_c                       10.2156
_cell_angle_alpha                   88.9935
_cell_angle_beta                    89.5834
_cell_angle_gamma                   91.5949

loop_
_atom_site_label
_atom_site_type_symbol
_atom_site_fract_x
_atom_site_fract_y
_atom_site_fract_z
_atom_site_charge
  Ge     Ge        0.052090000000021    0.000000000000000    0.372269999999958  0.0000
  Ge     Ge        0.450279437304653    0.053847010344514    0.348176584104537  0.0000
  Ge     Ge        0.946845186498424    0.048812639050921    0.628048461585725  0.0000
  Ge     Ge        0.554438855884878    0.985736784382775    0.092102937840720  0.0000
  Ge     Ge        0.947930645886034    0.047222170513131    0.121910203816920  0.0000
  Ge     Ge        0.450979326515599    0.053790474688903    0.838355614886951  0.0000
  Ge     Ge        0.057520858259604    0.004209951048370    0.874944953457249  0.0000
  Ge     Ge        0.175196686871204    0.289740238005270    0.260248808956763  0.0000
  Ge     Ge        0.327753117746995    0.771863736205269    0.264284552683041  0.0000
  Ge     Ge        0.850745408144725    0.365909459161025    0.691225196322018  0.0000
  Ge     Ge        0.648236439813537    0.694274698704597    0.705572098754899  0.0000
  Ge     Ge        0.668943230033280    0.294456793752232    0.697839975315190  0.0000
  Ge     Ge        0.147663270987785    0.691277194059964    0.256679815925698  0.0000
  Ge     Ge        0.356426515077890    0.368678914969739    0.268715297347417  0.0000
  Ge     Ge        0.676451838709308    0.275988875580790    0.015535119243792  0.0000
  Ge     Ge        0.831012438847560    0.748808442811572    0.008373184150260  0.0000
  Ge     Ge        0.361399256456603    0.370884391021827    0.953813731633798  0.0000
  Ge     Ge        0.156581186327656    0.690442316719840    0.938361088971177  0.0000
  Ge     Ge        0.179528974352296    0.292947845632138    0.943139458326090  0.0000
  Ge     Ge        0.651078703022255    0.674099583159275    0.025297393148240  0.0000
  Si     Si        0.554241398092557    0.003957017638522    0.591740524203533  0.0000
  Si     Si        0.827564918087111    0.760930345380003    0.698206564888821  0.0000
  Si     Si        0.333883521499392    0.768011540029793    0.953848308542534  0.0000
  Si     Si        0.853708872193458    0.350961835516470    0.000534362844593  0.0000
  O1     O1        0.128083681007776    0.139019080772326    0.354340633276629  0.0000
  O1     O1        0.375567509512253    0.909313595774432    0.363500755316239  0.0000
  O1     O1        0.912586735450508    0.249986042271872    0.601604390329398  0.0000
  O3     O3        0.583760549211151    0.816805638916387    0.624311012739117  0.0000
  O3     O3        0.872546719485590    0.900555899831758    0.609970123109652  0.0000
  O3     O3        0.621316744126947    0.142672673218650    0.608322170511234  0.0000
  O1     O1        0.078643600123925    0.796873555191161    0.337986445070171  0.0000
  O1     O1        0.417135674284495    0.254791806086080    0.365892954019746  0.0000
  O1     O1        0.023110738653379    0.005381158634119    0.533811224921174  0.0000
  O3     O3        0.527897222592169    0.008438640837448    0.441274307765054  0.0000
  O1     O1        0.974328529953822    0.056725436443578    0.283097809128901  0.0000
  O1     O1        0.479853741781123    0.034028975709745    0.187182674231373  0.0000
  O1     O1        0.978222409749180    0.040607912025941    0.787568985850236  0.0000
  O3     O3        0.479705751284093    0.045746189795226    0.675789701433029  0.0000
  O1     O1        0.631549375603457    0.124592815021141    0.110043404531995  0.0000
  O1     O1        0.881756316259784    0.884788352187014    0.103435538499463  0.0000
  O1     O1        0.424314482569080    0.260241186875303    0.862424314991816  0.0000
  O1     O1        0.096415248404788    0.809042365151374    0.846948506087770  0.0000
  O3     O3        0.375552892055822    0.911342211217111    0.864507537943118  0.0000
  O1     O1        0.130232436531797    0.152052768848286    0.849009006094501  0.0000
  O1     O1        0.587073818816747    0.783243778831713    0.115874847591818  0.0000
  O3     O3        0.914018976504208    0.246437593364494    0.082412378137085  0.0000
  O1     O1        0.526996884932942    0.001884075218185    0.930327934425942  0.0000
  O1     O1        0.029250772513693    0.007503502608874    0.037215992698091  0.0000
  O1     O1        0.159483288103017    0.490116406632469    0.320004670144748  0.0000
  O1     O1        0.343084437898503    0.568340250694933    0.324119453682151  0.0000
  O3     O3        0.842179189046228    0.574586913816582    0.639291149049817  0.0000
  O1     O1        0.651300394133469    0.496137525866037    0.638393823990262  0.0000
  O1     O1        0.270975854236806    0.257117542864469    0.262027354389859  0.0000
  O1     O1        0.232579350149983    0.806406411609116    0.266601379468704  0.0000
  O1     O1        0.764192803066436    0.262242225597885    0.685300067780936  0.0000
  O3     O3        0.737997793639408    0.792013282571624    0.700503114178407  0.0000
  O1     O1        0.144641124780963    0.279063488770261    0.101095738446796  0.0000
  O3     O3        0.362001203239335    0.781864239593021    0.103507948885670  0.0000
  O3     O3        0.882303673704028    0.369297809555888    0.851345873436028  0.0000
  O1     O1        0.621078753342142    0.665877582330958    0.864964976319512  0.0000
  O3     O3        0.859252491031230    0.771431506185025    0.845998331350768  0.0000
  O1     O1        0.641081914346542    0.275466528673370    0.858599120830713  0.0000
  O1     O1        0.122560062982422    0.669975220244051    0.096121222704381  0.0000
  O1     O1        0.392921878331545    0.376425042165346    0.111688203205457  0.0000
  O1     O1        0.660344693959277    0.471553095685101    0.083537510722662  0.0000
  O3     O3        0.843710924203547    0.538007753340866    0.058080862754872  0.0000
  O3     O3        0.351129577534802    0.580177696544948    0.900362498102192  0.0000
  O1     O1        0.165878526505337    0.493286430064926    0.876037698351859  0.0000
  O3     O3        0.773246657807419    0.247077889853867    0.004463547357277  0.0000
  O1     O1        0.736650117131628    0.786293129693768    0.023925874801584  0.0000
  O1     O1        0.275265429617707    0.263307587956667    0.946722994160881  0.0000
  O3     O3        0.244233430370049    0.796375127796610    0.950897504110156  0.0000
