data_c00741.vasp
_audit_creation_method             Generated by GULP
_audit_author_name                 Salvador R. G. Balestra
_symmetry_space_group_name_H-M     'P 1             '
_symmetry_Int_Tables_number        1

loop_
_symmetry_equiv_pos_site_id
_symmetry_equiv_pos_as_xyz
_cell_length_a                       17.5238
_cell_length_b                        7.8272
_cell_length_c                       10.2045
_cell_angle_alpha                   89.8163
_cell_angle_beta                    90.4830
_cell_angle_gamma                   88.0346

loop_
_atom_site_label
_atom_site_type_symbol
_atom_site_fract_x
_atom_site_fract_y
_atom_site_fract_z
_atom_site_charge
  Ge     Ge        0.052090000000021    0.000000000000000    0.372269999999958  0.0000
  Ge     Ge        0.439595951008386    0.962402374184684    0.371159014671801  0.0000
  Ge     Ge        0.941629157657778    0.945462467108987    0.614947215114713  0.0000
  Ge     Ge        0.551495971595175    0.005724595509967    0.126524283232788  0.0000
  Ge     Ge        0.938478305683650    0.941063712566684    0.129337948569125  0.0000
  Ge     Ge        0.445351773495234    0.946344795198293    0.871143418898018  0.0000
  Ge     Ge        0.040268209879811    0.011238754912358    0.874853319611327  0.0000
  Ge     Ge        0.141333499471587    0.321503496818895    0.257036609725517  0.0000
  Ge     Ge        0.349255301171065    0.640486288555997    0.256305956614568  0.0000
  Ge     Ge        0.818832162675106    0.233367918832001    0.689134910432156  0.0000
  Ge     Ge        0.659072552474933    0.720842123463172    0.697149446811187  0.0000
  Ge     Ge        0.841415106450847    0.637538363031196    0.690156276895771  0.0000
  Ge     Ge        0.637801607620471    0.314861189394500    0.692898312146504  0.0000
  Ge     Ge        0.849163801039873    0.626898051954828    0.008273453616532  0.0000
  Ge     Ge        0.319908543684401    0.234310794511946    0.947385083874006  0.0000
  Ge     Ge        0.167529458475917    0.722672065480688    0.945979733304638  0.0000
  Ge     Ge        0.347816759799690    0.637861799912169    0.940044662576615  0.0000
  Ge     Ge        0.139508227567127    0.319594649496890    0.940841847826827  0.0000
  Ge     Ge        0.666148233488821    0.708627965061244    0.012996381170418  0.0000
  Ge     Ge        0.818527849853342    0.226996194795828    0.007114525358877  0.0000
  Si     Si        0.542474695057268    0.009232606462778    0.619920609073232  0.0000
  Si     Si        0.167851327786442    0.712702660117992    0.256258693046262  0.0000
  Si     Si        0.322694510838276    0.248176746889463    0.257401656499617  0.0000
  Si     Si        0.640224483129542    0.313396936195146    0.003165097826630  0.0000
  O1     O1        0.081506984101993    0.204941454014001    0.350827249261237  0.0000
  O1     O1        0.410138353424826    0.757602635247391    0.348472554934077  0.0000
  O1     O1        0.870238263260643    0.099130492902755    0.589019402811345  0.0000
  O3     O3        0.609400125089629    0.865830991658809    0.597078532081389  0.0000
  O1     O1        0.903530054897204    0.748382074442332    0.595350796851083  0.0000
  O3     O3        0.573565762722581    0.198583990132083    0.602354785571869  0.0000
  O3     O3        0.127896815955841    0.860757454236471    0.341550131944537  0.0000
  O3     O3        0.362413732650917    0.101030600856553    0.345623309072626  0.0000
  O1     O1        0.023950150513447    0.977850662543711    0.532834895120565  0.0000
  O3     O3        0.467979599972960    0.978464126685648    0.534408330875128  0.0000
  O1     O1        0.969602490379708    0.955279726916380    0.288967222718923  0.0000
  O1     O1        0.518726226181071    0.012005658233996    0.284562928981889  0.0000
  O1     O1        0.964701819095118    0.963227546948979    0.780114429467611  0.0000
  O3     O3        0.520563429892989    0.990466869716263    0.773178804875735  0.0000
  O3     O3        0.580717633855774    0.208514377578092    0.086072244072129  0.0000
  O1     O1        0.916006157255780    0.733448355262980    0.095998082588139  0.0000
  O1     O1        0.370530359296590    0.093303775478447    0.853873792184893  0.0000
  O1     O1        0.115092880582863    0.864831665262422    0.854617696283585  0.0000
  O1     O1        0.410844266085912    0.745964411897270    0.846135717846109  0.0000
  O1     O1        0.074813437982884    0.211865289631831    0.848698251007215  0.0000
  O1     O1        0.623539893666902    0.852071076972685    0.116814828063341  0.0000
  O1     O1        0.857699529265519    0.068890307711953    0.103350560547462  0.0000
  O1     O1        0.475444548254765    0.952755912408719    0.031731820823840  0.0000
  O1     O1        0.012452233415771    0.007389704145696    0.036620629857449  0.0000
  O3     O3        0.147714478469445    0.528444546455883    0.315513815964581  0.0000
  O3     O3        0.343103844064208    0.433083918031159    0.314485639592012  0.0000
  O1     O1        0.828289762291368    0.438383710451535    0.629739195412252  0.0000
  O1     O1        0.644742312550433    0.518291491159948    0.635456838258095  0.0000
  O3     O3        0.232079763346518    0.227053773233619    0.256268472332885  0.0000
  O3     O3        0.258320427163959    0.734997753632157    0.256207913149223  0.0000
  O1     O1        0.722687485900332    0.199038495651319    0.687151075011962  0.0000
  O1     O1        0.755412970527531    0.752504027103272    0.695443735883814  0.0000
  O1     O1        0.107355020365018    0.327940137039869    0.100261767558084  0.0000
  O1     O1        0.381485364020569    0.633182353717520    0.099415322484981  0.0000
  O1     O1        0.851424684398196    0.214505623631813    0.848872251111680  0.0000
  O1     O1        0.629393527509132    0.736709293278806    0.857379351083417  0.0000
  O1     O1        0.876617037011860    0.614476573408907    0.847267397663856  0.0000
  O3     O3        0.609845614065817    0.337932953276205    0.854843611514680  0.0000
  O3     O3        0.136247304656107    0.725840216905046    0.107719325118963  0.0000
  O3     O3        0.352854171333957    0.230976991783762    0.108933275214396  0.0000
  O3     O3        0.651923664134052    0.499288894198900    0.064522404527661  0.0000
  O1     O1        0.840811445118833    0.423793839128811    0.068681778200460  0.0000
  O1     O1        0.333360246475343    0.437266672273839    0.885445519044054  0.0000
  O1     O1        0.152915478496021    0.520303226901319    0.884325727441029  0.0000
  O3     O3        0.720569443670957    0.206884308686422    0.000425782403757  0.0000
  O1     O1        0.762395405278914    0.736689570758400    0.012478575403769  0.0000
  O1     O1        0.224409887513534    0.199979465212509    0.942628535833500  0.0000
  O1     O1        0.262761280609880    0.757319605549755    0.941126999763076  0.0000
