data_c00704.vasp
_audit_creation_method             Generated by GULP
_audit_author_name                 Salvador R. G. Balestra
_symmetry_space_group_name_H-M     'P 1             '
_symmetry_Int_Tables_number        1

loop_
_symmetry_equiv_pos_site_id
_symmetry_equiv_pos_as_xyz
_cell_length_a                       17.5451
_cell_length_b                        7.8351
_cell_length_c                       10.1351
_cell_angle_alpha                   88.3530
_cell_angle_beta                    92.2065
_cell_angle_gamma                   87.6398

loop_
_atom_site_label
_atom_site_type_symbol
_atom_site_fract_x
_atom_site_fract_y
_atom_site_fract_z
_atom_site_charge
  Ge     Ge        0.052090000000021    0.000000000000000    0.372269999999958  0.0000
  Ge     Ge        0.447091152170014    0.963899155757021    0.353948564350661  0.0000
  Ge     Ge        0.935726394376143    0.970636727598253    0.607744467525641  0.0000
  Ge     Ge        0.561362651610839    0.018229635616822    0.126055875171827  0.0000
  Ge     Ge        0.940695429313553    0.947314558784388    0.119883501508848  0.0000
  Ge     Ge        0.441296336970864    0.981506647700089    0.877020216548976  0.0000
  Ge     Ge        0.037992892967662    0.039286746301926    0.867700987059161  0.0000
  Ge     Ge        0.147917218532958    0.311125269702583    0.251862789651264  0.0000
  Ge     Ge        0.357422962985020    0.641562439039596    0.255200880628119  0.0000
  Ge     Ge        0.813472369729845    0.258725319389754    0.677886762578405  0.0000
  Ge     Ge        0.653024672271814    0.747998836108314    0.688503619633788  0.0000
  Ge     Ge        0.834764356773029    0.661013211286929    0.674812548747269  0.0000
  Ge     Ge        0.632460058887180    0.341879746258907    0.686511192912117  0.0000
  Ge     Ge        0.170770667937409    0.713981391875752    0.264338918768230  0.0000
  Ge     Ge        0.853227528352590    0.635229701956000    0.995215090689093  0.0000
  Ge     Ge        0.162356770456520    0.745528272473167    0.947318808065902  0.0000
  Ge     Ge        0.348418927004245    0.661548779461791    0.941370422793335  0.0000
  Ge     Ge        0.139666250319710    0.345416779509452    0.920107289247379  0.0000
  Ge     Ge        0.670889658777342    0.724955642161848    0.005978211503756  0.0000
  Ge     Ge        0.820395555181945    0.238951544674409    0.998591387630685  0.0000
  Si     Si        0.532445431142575    0.044026014963342    0.615273963457115  0.0000
  Si     Si        0.323482154336194    0.258237799062712    0.241377908816911  0.0000
  Si     Si        0.642337198721878    0.332367043899778    0.998981680037508  0.0000
  Si     Si        0.314790945292451    0.283518363026330    0.925026745838494  0.0000
  O1     O1        0.080547283466765    0.199973075043402    0.330522664364731  0.0000
  O1     O1        0.419403481636236    0.757519942996730    0.350117113075989  0.0000
  O1     O1        0.863999936939589    0.126052100280586    0.579110302620258  0.0000
  O3     O3        0.597609608117022    0.896139456942444    0.594208074399354  0.0000
  O1     O1        0.896232517513285    0.776666764149078    0.583727474178132  0.0000
  O3     O3        0.566236163003785    0.230259900184795    0.596796704796001  0.0000
  O1     O1        0.128312391975534    0.858356114762772    0.365591557495715  0.0000
  O3     O3        0.376972160941420    0.092562472834244    0.270762565223942  0.0000
  O1     O1        0.018166739098715    0.003358960959241    0.529918081771780  0.0000
  O3     O3        0.460160022619732    0.019555922681055    0.518240570534281  0.0000
  O1     O1        0.972273080584928    0.943419838502869    0.281963518809178  0.0000
  O1     O1        0.532488379014997    0.003189935671513    0.285297820105999  0.0000
  O1     O1        0.961984265619740    0.981702285028152    0.774203586344501  0.0000
  O3     O3        0.509064009919197    0.030344240512404    0.767413824923161  0.0000
  O3     O3        0.585877423695362    0.225013809071834    0.086162862442739  0.0000
  O1     O1        0.922438821238312    0.740863708529726    0.078241586999211  0.0000
  O3     O3        0.366941516947169    0.134277369379567    0.872328978583825  0.0000
  O1     O1        0.117666893019137    0.905461386324742    0.854124314565153  0.0000
  O1     O1        0.402156951715726    0.789502877185126    0.845064252754115  0.0000
  O1     O1        0.069532590683285    0.241634762897809    0.837118530167748  0.0000
  O1     O1        0.634370351536750    0.869348409471922    0.111600878035041  0.0000
  O1     O1        0.858243998502814    0.073971630887357    0.095626679450931  0.0000
  O1     O1        0.482137843128315    0.969822755858175    0.032433685755449  0.0000
  O1     O1        0.010759139535369    0.031523980414163    0.029506403248974  0.0000
  O1     O1        0.149394458054535    0.511380381929684    0.314285520030049  0.0000
  O3     O3        0.354549148339615    0.427521673667573    0.308495658366727  0.0000
  O1     O1        0.820326124471874    0.464189452428788    0.613872363740460  0.0000
  O1     O1        0.637834382270084    0.547213844058751    0.628224511714716  0.0000
  O3     O3        0.239019808715994    0.216959958305509    0.283438407267488  0.0000
  O1     O1        0.267461587243724    0.733134828705630    0.267104250667752  0.0000
  O1     O1        0.717320887216427    0.225835592168000    0.678959921393098  0.0000
  O1     O1        0.749218113427086    0.778169647256407    0.680907930810428  0.0000
  O1     O1        0.125757500772247    0.319732810705255    0.086541761641932  0.0000
  O1     O1        0.389721989805018    0.654810807990847    0.098244705322915  0.0000
  O1     O1        0.849646769155134    0.232525768436564    0.838515035445045  0.0000
  O1     O1        0.628820804221944    0.760871992164800    0.851211531903140  0.0000
  O1     O1        0.873738464476552    0.623765743637750    0.831783953985137  0.0000
  O3     O3        0.608046484905009    0.360640127895837    0.850247035151327  0.0000
  O1     O1        0.132009355282706    0.754111139612174    0.107337284390180  0.0000
  O2     O2        0.317084520069586    0.312152595991948    0.084302709151612  0.0000
  O3     O3        0.655384069858173    0.516060320672954    0.059965974298000  0.0000
  O1     O1        0.846260908524358    0.432019430323369    0.060053085430505  0.0000
  O3     O3        0.341574757091919    0.465697101393356    0.868931325517727  0.0000
  O1     O1        0.137160866374302    0.556454046804312    0.877513113409803  0.0000
  O3     O3        0.722242090779697    0.224994504970436    0.993221832453982  0.0000
  O1     O1        0.766873220432964    0.747319917414778    0.001030476080330  0.0000
  O3     O3        0.228043931385599    0.253240345296966    0.882717379788508  0.0000
  O1     O1        0.259151293280681    0.756593825048910    0.956265649501461  0.0000
