data_c00764.vasp
_audit_creation_method             Generated by GULP
_audit_author_name                 Salvador R. G. Balestra
_symmetry_space_group_name_H-M     'P 1             '
_symmetry_Int_Tables_number        1

loop_
_symmetry_equiv_pos_site_id
_symmetry_equiv_pos_as_xyz
_cell_length_a                       17.6178
_cell_length_b                        7.8217
_cell_length_c                       10.1682
_cell_angle_alpha                   90.9667
_cell_angle_beta                    91.1877
_cell_angle_gamma                   91.8962

loop_
_atom_site_label
_atom_site_type_symbol
_atom_site_fract_x
_atom_site_fract_y
_atom_site_fract_z
_atom_site_charge
  Ge     Ge        0.052090000000021    0.000000000000000    0.372269999999958  0.0000
  Ge     Ge        0.455812870051609    0.062200031361093    0.380542237846142  0.0000
  Ge     Ge        0.940312804073279    0.036958169272146    0.614380115667213  0.0000
  Ge     Ge        0.554475616533372    0.015183780539840    0.113510498318622  0.0000
  Ge     Ge        0.950879379644028    0.072542769097675    0.113533186250672  0.0000
  Ge     Ge        0.441487631616706    0.056660450956147    0.861029040208695  0.0000
  Ge     Ge        0.051949951749780    0.992218509046584    0.862414223739449  0.0000
  Ge     Ge        0.176424864982402    0.283491830338870    0.299164414717106  0.0000
  Ge     Ge        0.329727563794939    0.776211781423550    0.303197632349249  0.0000
  Ge     Ge        0.841371843563637    0.346392147795529    0.736013265809663  0.0000
  Ge     Ge        0.638557870292312    0.682643353590084    0.739620688219234  0.0000
  Ge     Ge        0.822614053603603    0.748152572651174    0.721639544486940  0.0000
  Ge     Ge        0.150222427689547    0.685571422535388    0.308198825495734  0.0000
  Ge     Ge        0.356984650604104    0.370685030377987    0.299882049190268  0.0000
  Ge     Ge        0.829181395103386    0.776825823437124    0.037111404670907  0.0000
  Ge     Ge        0.354632796176514    0.372581500926580    0.981370592400725  0.0000
  Ge     Ge        0.141806801335477    0.680758154186067    0.987777876827114  0.0000
  Ge     Ge        0.322236305935635    0.775464956719543    0.983381093002227  0.0000
  Ge     Ge        0.173406782771755    0.280109291181156    0.980056151683401  0.0000
  Ge     Ge        0.846747666544296    0.379377727457401    0.068148491426063  0.0000
  Si     Si        0.549834569471803    0.994638181439698    0.632179108146439  0.0000
  Si     Si        0.665691491422032    0.286225797377956    0.747445353217309  0.0000
  Si     Si        0.671994281459937    0.317708306075922    0.062804897777075  0.0000
  Si     Si        0.648848354438435    0.704535455573977    0.043596655307649  0.0000
  O1     O1        0.126640585064327    0.145572104588457    0.396577207343757  0.0000
  O1     O1        0.382260452972039    0.915638652784009    0.401851782287118  0.0000
  O1     O1        0.910089261301036    0.234191970039086    0.661961460619552  0.0000
  O3     O3        0.575212411013341    0.801091845973990    0.649039725647863  0.0000
  O1     O1        0.865959494742709    0.892360921938392    0.620551545320380  0.0000
  O2     O2        0.613117519144620    0.128634928150807    0.693444672817153  0.0000
  O1     O1        0.085570798242666    0.798938451348723    0.395675948499431  0.0000
  O1     O1        0.421541413261950    0.263740480454843    0.393859916973448  0.0000
  O1     O1        0.972193515653715    0.044944660631914    0.455222131127780  0.0000
  O3     O3        0.534813803929744    0.029673768967966    0.478980034770121  0.0000
  O1     O1        0.025621825976919    0.014808534827069    0.207104849241877  0.0000
  O1     O1        0.482779979930595    0.031427458703976    0.219661400591057  0.0000
  O1     O1        0.020306419243480    0.982401063587625    0.701558389932705  0.0000
  O3     O3        0.469727557614355    0.027748717290673    0.699898875851829  0.0000
  O3     O3        0.616910867002947    0.190781002461603    0.138123863682910  0.0000
  O1     O1        0.871524346781942    0.938353083914988    0.126817963559222  0.0000
  O1     O1        0.418098886084515    0.265353760973772    0.887952142625019  0.0000
  O1     O1        0.072512156272852    0.787060239578971    0.906445068411457  0.0000
  O1     O1        0.363208167545636    0.927004661106445    0.886705242619507  0.0000
  O1     O1        0.130951650746070    0.125735436536192    0.880206304236173  0.0000
  O3     O3        0.602490445197992    0.825911471567638    0.137702125512248  0.0000
  O1     O1        0.916868590953738    0.272795289715119    0.146448270954710  0.0000
  O1     O1        0.517910186025482    0.004992984903123    0.957040801948491  0.0000
  O1     O1        0.979259695901987    0.070104463150926    0.952451188283665  0.0000
  O1     O1        0.164635468560936    0.486176632939567    0.365940498357363  0.0000
  O1     O1        0.343031204322984    0.571541251028448    0.359200928160491  0.0000
  O1     O1        0.840331954820378    0.544948015368268    0.668258910970344  0.0000
  O3     O3        0.640212164969587    0.467598169016789    0.691212427631088  0.0000
  O1     O1        0.272219211651044    0.251608958207790    0.297115350972842  0.0000
  O1     O1        0.233820333299410    0.807743495680575    0.307932367500213  0.0000
  O3     O3        0.751422105998756    0.249333950405616    0.710992721645766  0.0000
  O1     O1        0.726448408591608    0.773794728070999    0.719239255255071  0.0000
  O1     O1        0.141850821175244    0.265457262322851    0.139117628634609  0.0000
  O1     O1        0.357472957999365    0.792110524401504    0.142118883540740  0.0000
  O1     O1        0.859204733304580    0.370528120646631    0.900647508109249  0.0000
  O3     O3        0.608449469540604    0.689984878639705    0.900156152377517  0.0000
  O1     O1        0.860675578214862    0.784086886771305    0.877620951302760  0.0000
  O2     O2        0.659431256679583    0.296420125802096    0.905486138021919  0.0000
  O1     O1        0.117461758364433    0.656782386334710    0.148662907431412  0.0000
  O1     O1        0.388358557166963    0.385443888382226    0.141183075097941  0.0000
  O2     O2        0.656087003481066    0.515274662310773    0.104023097458520  0.0000
  O1     O1        0.851198466601468    0.589730779296412    0.113530619878582  0.0000
  O1     O1        0.340504067738375    0.573094637154589    0.923497362112189  0.0000
  O1     O1        0.153283753895580    0.480296800485776    0.921849502881498  0.0000
  O3     O3        0.758531275928835    0.283893746876466    0.100202754373273  0.0000
  O3     O3        0.731893583907168    0.789051929131603    0.021515624840336  0.0000
  O1     O1        0.269626762561930    0.257427806363865    0.982007885437367  0.0000
  O1     O1        0.225981825364755    0.799232667145392    0.983263742446437  0.0000
