data_c00730.vasp
_audit_creation_method             Generated by GULP
_audit_author_name                 Salvador R. G. Balestra
_symmetry_space_group_name_H-M     'P 1             '
_symmetry_Int_Tables_number        1

loop_
_symmetry_equiv_pos_site_id
_symmetry_equiv_pos_as_xyz
_cell_length_a                       17.5555
_cell_length_b                        7.8355
_cell_length_c                       10.1877
_cell_angle_alpha                   90.7828
_cell_angle_beta                    90.3370
_cell_angle_gamma                   91.8303

loop_
_atom_site_label
_atom_site_type_symbol
_atom_site_fract_x
_atom_site_fract_y
_atom_site_fract_z
_atom_site_charge
  Ge     Ge        0.052090000000021    0.000000000000000    0.372269999999958  0.0000
  Ge     Ge        0.445610882586627    0.061270849630263    0.373247626015529  0.0000
  Ge     Ge        0.941022732061452    0.031727868842279    0.617245441187174  0.0000
  Ge     Ge        0.552107749381890    0.988768380166931    0.126458469379755  0.0000
  Ge     Ge        0.937754162637554    0.041261153424592    0.130871523995911  0.0000
  Ge     Ge        0.441271630467046    0.032937875975523    0.876323485476147  0.0000
  Ge     Ge        0.041764702666607    0.974994909389719    0.877278602385698  0.0000
  Ge     Ge        0.167901130267455    0.298499991756032    0.267113644731499  0.0000
  Ge     Ge        0.321815526537331    0.770302299690843    0.251428728773930  0.0000
  Ge     Ge        0.841525553764820    0.344237913169957    0.684984303230668  0.0000
  Ge     Ge        0.634335937624518    0.671610251476584    0.695099779322121  0.0000
  Ge     Ge        0.817375236366494    0.747458688430188    0.693703697132454  0.0000
  Ge     Ge        0.660228791471335    0.268746204415063    0.693022699962094  0.0000
  Ge     Ge        0.352796263460060    0.372146228836397    0.266914803360981  0.0000
  Ge     Ge        0.818791272318348    0.751371573162306    0.010872367394896  0.0000
  Ge     Ge        0.347445686665148    0.351026091396154    0.951352876548893  0.0000
  Ge     Ge        0.145092132095486    0.667832257346148    0.934376556383250  0.0000
  Ge     Ge        0.165015340940902    0.267630332101749    0.953079617442028  0.0000
  Ge     Ge        0.635963617107259    0.664257621268301    0.009546097954578  0.0000
  Ge     Ge        0.845690018472282    0.351581806972871    0.005147700038094  0.0000
  Si     Si        0.540586223372431    0.979300219480394    0.623460964843967  0.0000
  Si     Si        0.144868421971432    0.691929740104515    0.250736413727346  0.0000
  Si     Si        0.666597791606869    0.272532736121014    0.005371302079324  0.0000
  Si     Si        0.321071291832234    0.743359172364829    0.936662034589118  0.0000
  O1     O1        0.121443972507177    0.157471683006480    0.368580152497155  0.0000
  O1     O1        0.366736838253337    0.939857839429615    0.325773656421757  0.0000
  O1     O1        0.905783294805586    0.231499522830254    0.595135563753320  0.0000
  O3     O3        0.573369088106339    0.792318555956565    0.601373999585896  0.0000
  O1     O1        0.866608670310086    0.885576361101691    0.594859026384396  0.0000
  O3     O3        0.606991653471466    0.122726878948361    0.600430063715400  0.0000
  O3     O3        0.081602051381091    0.801117479382651    0.322584628861881  0.0000
  O1     O1        0.418021357148702    0.268051919043604    0.360775513598681  0.0000
  O1     O1        0.021291587250900    0.987800809091040    0.532747854790156  0.0000
  O3     O3        0.467574425156794    0.013768427719485    0.535170511858268  0.0000
  O1     O1        0.969789039264871    0.047829256366425    0.290244740108068  0.0000
  O1     O1        0.525921448830496    0.016397967452350    0.286992676103976  0.0000
  O1     O1        0.966235160643553    0.018464380399527    0.782015835727231  0.0000
  O3     O3        0.516991342468288    0.995453767075830    0.776391990109825  0.0000
  O3     O3        0.628405382281961    0.124664959881941    0.091081812795650  0.0000
  O1     O1        0.860057618446769    0.904883461496187    0.110590735091912  0.0000
  O1     O1        0.404318403218440    0.230698951871290    0.853143703105911  0.0000
  O1     O1        0.078185420228698    0.774961692524214    0.850738839607986  0.0000
  O3     O3        0.370244485560464    0.875721254486730    0.852064203174326  0.0000
  O1     O1        0.117078962657039    0.118972979094372    0.859024466732282  0.0000
  O1     O1        0.575865628207548    0.778821251124166    0.105395106329491  0.0000
  O1     O1        0.911139594019609    0.243942568832951    0.091746479903672  0.0000
  O1     O1        0.473102255359307    0.032690495007171    0.035851230475843  0.0000
  O1     O1        0.012994937048333    0.978032541496293    0.038563101945609  0.0000
  O3     O3        0.153131948932838    0.508495062856323    0.317215992067619  0.0000
  O1     O1        0.345829991200306    0.580273479427828    0.319976644620946  0.0000
  O1     O1        0.829026230549043    0.544889260769274    0.628831030803933  0.0000
  O1     O1        0.643536691715636    0.469687032885607    0.633235661820537  0.0000
  O1     O1        0.264108333958489    0.271896971905916    0.272571289276953  0.0000
  O3     O3        0.224746296007018    0.799185505478339    0.260776423521307  0.0000
  O1     O1        0.755100882233823    0.231012285637271    0.681269129389695  0.0000
  O1     O1        0.721303162643644    0.779825539753795    0.698745995862269  0.0000
  O1     O1        0.131741137007614    0.258784418803956    0.112373827754651  0.0000
  O3     O3        0.347797106742664    0.756761311369083    0.088198206723172  0.0000
  O1     O1        0.873457795468802    0.363696180389950    0.844556719283584  0.0000
  O1     O1        0.600405545597842    0.655248462368214    0.852382401150226  0.0000
  O1     O1        0.852143310144845    0.764765510325406    0.852432441222385  0.0000
  O3     O3        0.633935479182348    0.265522563661843    0.857122142264332  0.0000
  O3     O3        0.122930368195345    0.655741246534347    0.099928403017237  0.0000
  O1     O1        0.384415834835854    0.368458184082125    0.107285920017572  0.0000
  O3     O3        0.648074388924704    0.458740596219597    0.065795103536944  0.0000
  O1     O1        0.838848843382945    0.552528422031766    0.069846091276913  0.0000
  O3     O3        0.334276241262664    0.550062504405706    0.885986582200872  0.0000
  O1     O1        0.149726976764512    0.462665529647078    0.881322704699785  0.0000
  O3     O3        0.756722058599239    0.247164602415729    0.003608468492965  0.0000
  O1     O1        0.722281887437525    0.772228431837934    0.007390579916550  0.0000
  O1     O1        0.261091158358746    0.241958881314842    0.962856838911469  0.0000
  O3     O3        0.232032474879981    0.779542542188993    0.923819385009730  0.0000
