data_c00710.vasp
_audit_creation_method             Generated by GULP
_audit_author_name                 Salvador R. G. Balestra
_symmetry_space_group_name_H-M     'P 1             '
_symmetry_Int_Tables_number        1

loop_
_symmetry_equiv_pos_site_id
_symmetry_equiv_pos_as_xyz
_cell_length_a                       17.6221
_cell_length_b                        7.8139
_cell_length_c                       10.2036
_cell_angle_alpha                   90.5207
_cell_angle_beta                    89.9541
_cell_angle_gamma                   91.3929

loop_
_atom_site_label
_atom_site_type_symbol
_atom_site_fract_x
_atom_site_fract_y
_atom_site_fract_z
_atom_site_charge
  Ge     Ge        0.052090000000021    0.000000000000000    0.372269999999958  0.0000
  Ge     Ge        0.444382524108515    0.051429213274089    0.343165382990861  0.0000
  Ge     Ge        0.943155362766395    0.042600726774843    0.619895063988838  0.0000
  Ge     Ge        0.548027237177370    0.987290002673791    0.084255375017986  0.0000
  Ge     Ge        0.940237684423785    0.049639979683394    0.130149723511356  0.0000
  Ge     Ge        0.440742581253422    0.041908303444248    0.832685152777951  0.0000
  Ge     Ge        0.045055063807991    0.986496607935655    0.877259776087310  0.0000
  Ge     Ge        0.168860188198052    0.295867170548891    0.263077857209881  0.0000
  Ge     Ge        0.320569760446885    0.771810100959241    0.259868979574919  0.0000
  Ge     Ge        0.843341838250819    0.356493931806940    0.689124415379638  0.0000
  Ge     Ge        0.637999691595283    0.684045996948851    0.703050482926579  0.0000
  Ge     Ge        0.818483045485929    0.760389639383301    0.692800698201743  0.0000
  Ge     Ge        0.662224065371600    0.278326060168128    0.698932355118127  0.0000
  Ge     Ge        0.351513603376365    0.369680556809299    0.267680368075649  0.0000
  Ge     Ge        0.667203669378509    0.283237127686550    0.016326768363833  0.0000
  Ge     Ge        0.820450551712492    0.763154186322700    0.010859462947701  0.0000
  Ge     Ge        0.350140908872440    0.359710122975315    0.952652101471939  0.0000
  Ge     Ge        0.147902080696361    0.678172166456075    0.938388605692571  0.0000
  Ge     Ge        0.168738777880343    0.276375313111364    0.948486285568882  0.0000
  Ge     Ge        0.848071198141611    0.360950320258882    0.009923667049402  0.0000
  Si     Si        0.544756827703048    0.989378208915483    0.589472548309099  0.0000
  Si     Si        0.144746233185953    0.691385036264957    0.252279230983377  0.0000
  Si     Si        0.322979407236718    0.759416284512261    0.947238279195119  0.0000
  Si     Si        0.644210489626747    0.678411131896469    0.013670292611249  0.0000
  O1     O1        0.121639865866342    0.155432745705686    0.363418718647681  0.0000
  O1     O1        0.364794095879756    0.919998311448131    0.357214218259635  0.0000
  O1     O1        0.907981609441434    0.243753311137480    0.599312385667061  0.0000
  O3     O3        0.569103162514331    0.798448796460427    0.624847559457490  0.0000
  O1     O1        0.869034046253875    0.898466963717539    0.595846430659784  0.0000
  O3     O3        0.613911709656549    0.123451018266424    0.608913458716526  0.0000
  O3     O3        0.081412379374274    0.798287558429281    0.327162429584960  0.0000
  O1     O1        0.414683390916414    0.257203411714865    0.360388967013599  0.0000
  O1     O1        0.022609981861416    0.996202113833249    0.533563976219147  0.0000
  O3     O3        0.520290657273806    0.997248495899801    0.437639864256963  0.0000
  O1     O1        0.970483466024868    0.048370428399940    0.289911676261492  0.0000
  O1     O1        0.472352868467592    0.013932710305525    0.183141560494562  0.0000
  O1     O1        0.968925394048541    0.028110565851001    0.783690889273390  0.0000
  O3     O3        0.469653196908004    0.037554621473177    0.670179611596094  0.0000
  O1     O1        0.616281622028422    0.145589393599893    0.112785541695890  0.0000
  O1     O1        0.861612647250420    0.917842216071266    0.107441340164646  0.0000
  O1     O1        0.411564504375834    0.247805220518308    0.857592491514423  0.0000
  O1     O1        0.082768265173492    0.786800555358235    0.851799337335570  0.0000
  O3     O3        0.367400343156609    0.894817188881077    0.857554203491450  0.0000
  O1     O1        0.118798807805517    0.132172096465856    0.855062713509553  0.0000
  O3     O3        0.586878142501592    0.786010996143343    0.101385491621911  0.0000
  O1     O1        0.916365485524889    0.255566033354398    0.092722425718313  0.0000
  O1     O1        0.518213871813649    0.997237000822262    0.923922975458713  0.0000
  O1     O1        0.015773766505998    0.985585590514296    0.038488127762162  0.0000
  O3     O3        0.155168083871504    0.505986375240286    0.315797106593911  0.0000
  O1     O1        0.341771008802218    0.574196655812769    0.321996124967074  0.0000
  O1     O1        0.830717470105586    0.556787685591368    0.630195374439999  0.0000
  O1     O1        0.645259075601017    0.480599434094859    0.640179636713150  0.0000
  O1     O1        0.264466708839943    0.263567932080055    0.266593446915314  0.0000
  O3     O3        0.223675681511644    0.800492178852058    0.261495386941835  0.0000
  O1     O1        0.757733425150673    0.243983177921544    0.690220929157759  0.0000
  O1     O1        0.722692026949687    0.795536810142302    0.690643566072330  0.0000
  O1     O1        0.134921806695943    0.262832146433181    0.107198719200597  0.0000
  O3     O3        0.350495090475718    0.777936444218934    0.097406221128192  0.0000
  O1     O1        0.873891555164363    0.378159784124020    0.848443254734736  0.0000
  O3     O3        0.613314029241418    0.654605170467433    0.865566312847852  0.0000
  O1     O1        0.851771670278780    0.777895247199402    0.851548941108934  0.0000
  O1     O1        0.633600768077327    0.261866172226576    0.858799311926658  0.0000
  O3     O3        0.121824458396241    0.659421556219084    0.102098996903976  0.0000
  O1     O1        0.384972033741098    0.369155613249065    0.109016671529207  0.0000
  O3     O3        0.656622475045730    0.492861206014032    0.073290573698686  0.0000
  O1     O1        0.839962794535136    0.564564913196208    0.071565392032948  0.0000
  O3     O3        0.337272644285483    0.565808676613381    0.897291489725812  0.0000
  O1     O1        0.154726990292393    0.475228903893235    0.880840346961699  0.0000
  O1     O1        0.762638051444794    0.248367150588477    0.019106118466384  0.0000
  O3     O3        0.723146586268815    0.786934904587977    0.005183429119071  0.0000
  O1     O1        0.264584573823779    0.248743116691897    0.952974902232497  0.0000
  O3     O3        0.233692789526023    0.792469464285410    0.937190181274855  0.0000
