data_c00754.vasp
_audit_creation_method             Generated by GULP
_audit_author_name                 Salvador R. G. Balestra
_symmetry_space_group_name_H-M     'P 1             '
_symmetry_Int_Tables_number        1

loop_
_symmetry_equiv_pos_site_id
_symmetry_equiv_pos_as_xyz
_cell_length_a                       17.5443
_cell_length_b                        7.8607
_cell_length_c                       10.2038
_cell_angle_alpha                   91.1745
_cell_angle_beta                    91.3082
_cell_angle_gamma                   91.9068

loop_
_atom_site_label
_atom_site_type_symbol
_atom_site_fract_x
_atom_site_fract_y
_atom_site_fract_z
_atom_site_charge
  Ge     Ge        0.052090000000021    0.000000000000000    0.372269999999958  0.0000
  Ge     Ge        0.449478185304254    0.060682279721048    0.383145512498670  0.0000
  Ge     Ge        0.942606878907750    0.049950121477138    0.615590057554940  0.0000
  Ge     Ge        0.547283261042411    0.005550873792854    0.121460294295197  0.0000
  Ge     Ge        0.954076096902673    0.067277263403998    0.111509561641016  0.0000
  Ge     Ge        0.438739410621277    0.043259379961948    0.862096679176227  0.0000
  Ge     Ge        0.056543445976287    0.994789814546364    0.860556003806880  0.0000
  Ge     Ge        0.173124654309442    0.284358995351054    0.294736002537199  0.0000
  Ge     Ge        0.328976246563466    0.771890874307922    0.291111736259092  0.0000
  Ge     Ge        0.844515051688298    0.361148075821401    0.730510812606903  0.0000
  Ge     Ge        0.638589340758380    0.690483353956183    0.739545454216926  0.0000
  Ge     Ge        0.823017033544881    0.759468639673043    0.728892392683170  0.0000
  Ge     Ge        0.147568020946867    0.688424829373311    0.293647759872926  0.0000
  Ge     Ge        0.352784858184976    0.363427397265779    0.294948948342280  0.0000
  Ge     Ge        0.672926388116655    0.296715841129989    0.055549494213827  0.0000
  Ge     Ge        0.827773843789090    0.776342533258724    0.045706165012549  0.0000
  Ge     Ge        0.141469590486716    0.672599542640220    0.977900855892851  0.0000
  Ge     Ge        0.327232941629362    0.746816408784692    0.975843211073325  0.0000
  Ge     Ge        0.645983366935624    0.695177693626611    0.054523894611591  0.0000
  Ge     Ge        0.852583119114914    0.375288246307949    0.053363818168936  0.0000
  Si     Si        0.550454938461178    0.005339403456053    0.630243864677400  0.0000
  Si     Si        0.664820109549794    0.298416561323833    0.740872968553128  0.0000
  Si     Si        0.348472601832946    0.353816079860281    0.986027361505809  0.0000
  Si     Si        0.169176310743800    0.283511800169426    0.985115761230782  0.0000
  O1     O1        0.124233337068798    0.152685724108103    0.395950859823500  0.0000
  O1     O1        0.377297185324353    0.909438626776431    0.397745653751662  0.0000
  O1     O1        0.909015229641482    0.248667482182979    0.644705317806920  0.0000
  O3     O3        0.575374183262211    0.813596542603073    0.652448267391261  0.0000
  O1     O1        0.868882325816020    0.906576889761756    0.635324912187994  0.0000
  O2     O2        0.617941655521987    0.141960018871530    0.669495522965686  0.0000
  O1     O1        0.087407647463818    0.801105788087510    0.391051683212832  0.0000
  O1     O1        0.416178785950838    0.262506081225546    0.394741887047291  0.0000
  O1     O1        0.971474972757270    0.037244209579370    0.455033404126147  0.0000
  O3     O3        0.529615531150625    0.026082583508257    0.477158719383914  0.0000
  O1     O1        0.029848130219778    0.020102198833186    0.206728925902583  0.0000
  O1     O1        0.473984556632316    0.040206199900225    0.220396743717908  0.0000
  O1     O1        0.026033861024194    0.010164988833099    0.700356484629668  0.0000
  O3     O3        0.472493272838302    0.046287313443777    0.703478636090203  0.0000
  O1     O1        0.620681652784701    0.156529927410460    0.142599990213639  0.0000
  O1     O1        0.878558385330988    0.925680873910716    0.136206629262789  0.0000
  O3     O3        0.397860861836490    0.236718483182624    0.894601171681382  0.0000
  O1     O1        0.080403031020118    0.786807028162003    0.884066678150367  0.0000
  O1     O1        0.370148460542546    0.884332600662113    0.871214880836157  0.0000
  O3     O3        0.136000468502389    0.127758989266894    0.896398422514298  0.0000
  O1     O1        0.585190805651708    0.809531019609095    0.147035518819431  0.0000
  O1     O1        0.921470658053210    0.269448659365123    0.136597368208349  0.0000
  O1     O1        0.516391081864048    0.012707424267446    0.960121751167217  0.0000
  O1     O1        0.980085628591017    0.052153011858038    0.949456152661461  0.0000
  O1     O1        0.161317671447982    0.490506384074408    0.351431912972735  0.0000
  O1     O1        0.341843303905123    0.567563046390199    0.345585972597514  0.0000
  O1     O1        0.838586894924876    0.559359489755443    0.666100004202688  0.0000
  O3     O3        0.645209091480510    0.480874773162225    0.680478865672718  0.0000
  O1     O1        0.268271369796138    0.245796252250610    0.300688777815299  0.0000
  O1     O1        0.232926187756145    0.803963017229068    0.287580105709400  0.0000
  O3     O3        0.753890544080964    0.263380276514986    0.726894227772364  0.0000
  O1     O1        0.726765973345625    0.788478047717372    0.730203536490928  0.0000
  O3     O3        0.138879201867901    0.270541982843769    0.132448541608502  0.0000
  O1     O1        0.361419360535613    0.787251307598396    0.132971231805632  0.0000
  O1     O1        0.875191269148103    0.382318366253546    0.890147159557345  0.0000
  O1     O1        0.608459678622646    0.681782050086569    0.896428564290002  0.0000
  O1     O1        0.859012707550227    0.778965074044551    0.886453355267514  0.0000
  O3     O3        0.642925249596612    0.303698495877886    0.892446099952687  0.0000
  O1     O1        0.110634304389449    0.674099640166725    0.135781719743124  0.0000
  O3     O3        0.383195207358335    0.362641290519173    0.133241454067575  0.0000
  O1     O1        0.659899434292960    0.500092506906347    0.117564083842554  0.0000
  O1     O1        0.842848676993192    0.577815715524062    0.110696484257435  0.0000
  O3     O3        0.347812483710786    0.540571894024938    0.927375808095526  0.0000
  O3     O3        0.144067614133111    0.461265814593486    0.924185714486832  0.0000
  O1     O1        0.767891697841558    0.257838201487874    0.063726660577823  0.0000
  O1     O1        0.731893166756706    0.807783735843293    0.043814863481338  0.0000
  O2     O2        0.261244558986793    0.280194136673697    0.996187748379982  0.0000
  O1     O1        0.230725397775221    0.767248100127218    0.971663651342151  0.0000
