data_c00714.vasp
_audit_creation_method             Generated by GULP
_audit_author_name                 Salvador R. G. Balestra
_symmetry_space_group_name_H-M     'P 1             '
_symmetry_Int_Tables_number        1

loop_
_symmetry_equiv_pos_site_id
_symmetry_equiv_pos_as_xyz
_cell_length_a                       17.6205
_cell_length_b                        7.8159
_cell_length_c                       10.2210
_cell_angle_alpha                   90.2673
_cell_angle_beta                    90.5313
_cell_angle_gamma                   91.3351

loop_
_atom_site_label
_atom_site_type_symbol
_atom_site_fract_x
_atom_site_fract_y
_atom_site_fract_z
_atom_site_charge
  Ge     Ge        0.052090000000021    0.000000000000000    0.372269999999958  0.0000
  Ge     Ge        0.443805165676364    0.054366019264066    0.373394563234283  0.0000
  Ge     Ge        0.948611485736766    0.041187393273789    0.624114980168087  0.0000
  Ge     Ge        0.548256451498459    0.993433181292401    0.122077791923451  0.0000
  Ge     Ge        0.939150305433996    0.053508319522529    0.133168025787235  0.0000
  Ge     Ge        0.443822088962947    0.055380664765023    0.866534335126643  0.0000
  Ge     Ge        0.049454103549883    0.996109389196616    0.888984527728169  0.0000
  Ge     Ge        0.169613915837339    0.295901325059597    0.257354961013295  0.0000
  Ge     Ge        0.321567855050192    0.770828654559347    0.259300456186915  0.0000
  Ge     Ge        0.846886550746009    0.354252082718877    0.689937182839309  0.0000
  Ge     Ge        0.641255690206863    0.681055205975364    0.685396189530905  0.0000
  Ge     Ge        0.822210080090693    0.758917661716751    0.690604322962882  0.0000
  Ge     Ge        0.665238016547456    0.278686550235148    0.691563427551699  0.0000
  Ge     Ge        0.350958288368317    0.368027358688805    0.256836558661851  0.0000
  Ge     Ge        0.669213907480735    0.277639107322029    0.009404755860783  0.0000
  Ge     Ge        0.818668091858040    0.768544018830718    0.008653060177921  0.0000
  Ge     Ge        0.343524551178544    0.365121853213279    0.935449358852028  0.0000
  Ge     Ge        0.322120549528982    0.765515158702589    0.940368159148954  0.0000
  Ge     Ge        0.639070139227226    0.678744214349023    0.003477482330909  0.0000
  Ge     Ge        0.849172577568487    0.364786048954153    0.008208719248360  0.0000
  Si     Si        0.546143621187637    0.993813377087604    0.621158151969837  0.0000
  Si     Si        0.145014942509980    0.695071419674928    0.253470305591136  0.0000
  Si     Si        0.145791797563780    0.685018371375467    0.948083999688235  0.0000
  Si     Si        0.166203201530418    0.291507661988858    0.948474400436699  0.0000
  O1     O1        0.120707073221611    0.156002570485557    0.353612037467509  0.0000
  O1     O1        0.364221461057888    0.927158374487004    0.352086120427185  0.0000
  O1     O1        0.911505282975698    0.240916794664033    0.602774731735891  0.0000
  O3     O3        0.576687818738076    0.803839005458896    0.599302669921989  0.0000
  O1     O1        0.875048871171182    0.895619469204983    0.597162098409961  0.0000
  O3     O3        0.614041747154106    0.131046466643618    0.597387352181472  0.0000
  O3     O3        0.082109931202775    0.797368545791472    0.330713079354375  0.0000
  O1     O1        0.419516105234067    0.261194699604755    0.341343877092667  0.0000
  O1     O1        0.027185892422828    0.000411487466826    0.534987121804194  0.0000
  O3     O3        0.472808419977460    0.034544577760851    0.535452687479243  0.0000
  O1     O1        0.968617346533545    0.044757305974761    0.293594687753201  0.0000
  O1     O1        0.518763018279537    0.992131488019312    0.281488422977173  0.0000
  O1     O1        0.974781845961346    0.024692619403582    0.787441868265537  0.0000
  O3     O3        0.521069851855028    0.011094230415412    0.773137069144499  0.0000
  O1     O1        0.625924403395055    0.127608761224397    0.105635467996440  0.0000
  O1     O1        0.862327681863355    0.919301461561552    0.106261159177298  0.0000
  O1     O1        0.404147513311916    0.251414970101158    0.841451894314912  0.0000
  O3     O3        0.086626762587834    0.792020016075505    0.865290668517435  0.0000
  O1     O1        0.370448120382477    0.908307761562929    0.846359985511495  0.0000
  O3     O3        0.117402346403400    0.158612428798656    0.861776091198014  0.0000
  O1     O1        0.570282958203511    0.786207146980941    0.083689372367876  0.0000
  O1     O1        0.915417652791738    0.260375395377670    0.098489848062143  0.0000
  O1     O1        0.474071953774381    0.059216198004120    0.027146697412171  0.0000
  O1     O1        0.017355900393127    0.996342812459630    0.046151099374535  0.0000
  O3     O3        0.153705396772252    0.504919305524564    0.308354326909258  0.0000
  O1     O1        0.342954877480365    0.571745039818653    0.317274127956953  0.0000
  O1     O1        0.833852062360387    0.554631264879569    0.630105596142986  0.0000
  O1     O1        0.650534093008692    0.478577807292417    0.624465469915554  0.0000
  O1     O1        0.264554604103930    0.261036869364851    0.268959654154267  0.0000
  O3     O3        0.224520453056442    0.799253395425234    0.265398553767908  0.0000
  O1     O1        0.760740242261083    0.242573185237871    0.689390446591973  0.0000
  O1     O1        0.726321073693520    0.793827117847612    0.685458732344476  0.0000
  O3     O3        0.138607773039515    0.267911961654381    0.097312937170160  0.0000
  O1     O1        0.352408712380990    0.787300352629281    0.100504770252801  0.0000
  O1     O1        0.878316200891196    0.377950640918924    0.848913385526433  0.0000
  O1     O1        0.611676508679408    0.651682280708434    0.842987960943054  0.0000
  O1     O1        0.851933339365377    0.778775135103618    0.851368126527739  0.0000
  O1     O1        0.635154145789262    0.266852009481716    0.850944549067171  0.0000
  O2     O2        0.121344077538858    0.679748395874075    0.100327429800540  0.0000
  O1     O1        0.374801596749604    0.380660078084579    0.094979249384712  0.0000
  O1     O1        0.652329402850908    0.480446077340427    0.069040281825292  0.0000
  O1     O1        0.835142587129465    0.566159762399790    0.068102230895382  0.0000
  O1     O1        0.339061441835965    0.566647674164416    0.876062063978595  0.0000
  O2     O2        0.153642467350251    0.488588732605505    0.900123966568178  0.0000
  O1     O1        0.764991313414524    0.247560273989420    0.009028232585675  0.0000
  O1     O1        0.722552760071427    0.798013638978668    0.007324902428837  0.0000
  O3     O3        0.255276503625964    0.258938517697765    0.939448905561726  0.0000
  O3     O3        0.225082952051719    0.789100542138828    0.938415833472741  0.0000
