data_c00735.vasp
_audit_creation_method             Generated by GULP
_audit_author_name                 Salvador R. G. Balestra
_symmetry_space_group_name_H-M     'P 1             '
_symmetry_Int_Tables_number        1

loop_
_symmetry_equiv_pos_site_id
_symmetry_equiv_pos_as_xyz
_cell_length_a                       17.6392
_cell_length_b                        7.8043
_cell_length_c                       10.1739
_cell_angle_alpha                   89.9490
_cell_angle_beta                    90.4032
_cell_angle_gamma                   90.8203

loop_
_atom_site_label
_atom_site_type_symbol
_atom_site_fract_x
_atom_site_fract_y
_atom_site_fract_z
_atom_site_charge
  Ge     Ge        0.052090000000021    0.000000000000000    0.372269999999958  0.0000
  Ge     Ge        0.441686190863418    0.049944592427423    0.418971764013905  0.0000
  Ge     Ge        0.941000670996166    0.051848640348963    0.619066499005412  0.0000
  Ge     Ge        0.553051496639384    0.013468216516269    0.174226062332518  0.0000
  Ge     Ge        0.945371518421426    0.072234529939516    0.122358994477986  0.0000
  Ge     Ge        0.446461890391622    0.070633212278568    0.919230046525560  0.0000
  Ge     Ge        0.047948976693570    0.009177917072586    0.871285058095125  0.0000
  Ge     Ge        0.171470559119113    0.291924651121567    0.304305410429458  0.0000
  Ge     Ge        0.324913713539428    0.757819656739495    0.311672649684077  0.0000
  Ge     Ge        0.844601508905288    0.364985732371234    0.741360681795558  0.0000
  Ge     Ge        0.638989998173968    0.698062329749244    0.737066683032253  0.0000
  Ge     Ge        0.819201233763408    0.769964009772070    0.731135283135788  0.0000
  Ge     Ge        0.663034256421323    0.291184878656231    0.744095364210640  0.0000
  Ge     Ge        0.667789117103767    0.308013156620775    0.061657829939326  0.0000
  Ge     Ge        0.821286366477455    0.787089688762549    0.049058208810777  0.0000
  Ge     Ge        0.347007309657956    0.381501411943458    0.986351858042149  0.0000
  Ge     Ge        0.143778209189674    0.700303022388322    0.998612744357072  0.0000
  Ge     Ge        0.321890739985854    0.787737766851715    0.994502597939116  0.0000
  Ge     Ge        0.169564426167589    0.293012732762918    0.985967384910747  0.0000
  Ge     Ge        0.847239640410443    0.386368045781932    0.062556682225498  0.0000
  Si     Si        0.545001754992335    0.011030613883392    0.668149826646858  0.0000
  Si     Si        0.147815168500276    0.684760036341652    0.311903984167195  0.0000
  Si     Si        0.348848296293027    0.363212505846535    0.300309516761819  0.0000
  Si     Si        0.645123181548777    0.707489475945906    0.048300492382109  0.0000
  O1     O1        0.123473424357355    0.148667370233281    0.400453105802545  0.0000
  O1     O1        0.369932482795675    0.900428279884149    0.413323732669474  0.0000
  O1     O1        0.911393773861141    0.254598788034264    0.655859828172234  0.0000
  O3     O3        0.573686890416368    0.817790054363697    0.649152301498931  0.0000
  O1     O1        0.866035043853899    0.912140103791938    0.632279588484098  0.0000
  O3     O3        0.613990430145153    0.145312505310704    0.646628249756378  0.0000
  O3     O3        0.088491164781840    0.796118396559727    0.393620447810274  0.0000
  O3     O3        0.410823040529823    0.251783672174945    0.375980053136767  0.0000
  O1     O1        0.972491971514956    0.040946106351013    0.458977205472132  0.0000
  O3     O3        0.472276695566402    0.055442864034074    0.582077063801037  0.0000
  O1     O1        0.023262909785704    0.016802464455175    0.209728910619322  0.0000
  O1     O1        0.520160092761650    0.995778515671347    0.332115020089625  0.0000
  O1     O1        0.019332730407107    0.996712292627152    0.709924845657261  0.0000
  O3     O3        0.521970732278491    0.028149036980547    0.821503912689865  0.0000
  O1     O1        0.621204411633264    0.172183267433467    0.166089255543104  0.0000
  O1     O1        0.868821135968533    0.934356370571056    0.141799146609615  0.0000
  O1     O1        0.413544612873776    0.275607844235557    0.898378495219524  0.0000
  O1     O1        0.072988439398855    0.806299860223754    0.920896136893554  0.0000
  O1     O1        0.371937681250374    0.927795659418222    0.899385997254330  0.0000
  O1     O1        0.122606511089934    0.151499944049673    0.885903699106187  0.0000
  O3     O3        0.586011452470382    0.812923052281717    0.132275839852871  0.0000
  O1     O1        0.912673566773621    0.275078986223333    0.152300420641954  0.0000
  O1     O1        0.475779990436108    0.060885254437525    0.080357975601412  0.0000
  O1     O1        0.971068493474037    0.073148596325198    0.958658786800322  0.0000
  O3     O3        0.155890630026351    0.495071342756313    0.369113559447363  0.0000
  O3     O3        0.341188160783498    0.550024515351005    0.365195245126467  0.0000
  O1     O1        0.831901823051070    0.564744343235329    0.674758803534118  0.0000
  O1     O1        0.646111022425175    0.493409865762664    0.680929826877357  0.0000
  O3     O3        0.268457340441102    0.260862815935299    0.304654770934925  0.0000
  O3     O3        0.227910816121985    0.787235628585805    0.312867477252380  0.0000
  O1     O1        0.758690904723545    0.255272521067966    0.739728389393880  0.0000
  O1     O1        0.723692045923944    0.807345093071841    0.728678593543825  0.0000
  O1     O1        0.138900082298091    0.269094205846738    0.145733208901302  0.0000
  O1     O1        0.355023239831985    0.797047825684283    0.154550009506835  0.0000
  O1     O1        0.873713505297720    0.398808846848462    0.899939968347320  0.0000
  O3     O3        0.613612630414791    0.679971616968077    0.901079247301247  0.0000
  O1     O1        0.853017709263407    0.795200956136610    0.889410864451995  0.0000
  O1     O1        0.633379357399643    0.278544968293594    0.904881231286923  0.0000
  O3     O3        0.120382788188415    0.664912240446232    0.161490609954298  0.0000
  O3     O3        0.373269973149756    0.397033656046986    0.151159085387288  0.0000
  O3     O3        0.658319856892579    0.521029663713598    0.110218249091524  0.0000
  O1     O1        0.838533414995998    0.589868598270423    0.118958298056688  0.0000
  O1     O1        0.333996874174654    0.584025500218194    0.931356539005217  0.0000
  O1     O1        0.155247143630321    0.500646901498186    0.933254953150226  0.0000
  O1     O1        0.762976673644709    0.271240355914823    0.064949791436399  0.0000
  O3     O3        0.724051026025648    0.815429446295632    0.043722723569439  0.0000
  O1     O1        0.265115215023424    0.259094342903553    0.980869587293105  0.0000
  O1     O1        0.225951142905130    0.822194916127033    0.990844277697157  0.0000
