data_c00761.vasp
_audit_creation_method             Generated by GULP
_audit_author_name                 Salvador R. G. Balestra
_symmetry_space_group_name_H-M     'P 1             '
_symmetry_Int_Tables_number        1

loop_
_symmetry_equiv_pos_site_id
_symmetry_equiv_pos_as_xyz
_cell_length_a                       17.8248
_cell_length_b                        7.8021
_cell_length_c                       10.3976
_cell_angle_alpha                   91.1061
_cell_angle_beta                    90.4563
_cell_angle_gamma                   90.7855

loop_
_atom_site_label
_atom_site_type_symbol
_atom_site_fract_x
_atom_site_fract_y
_atom_site_fract_z
_atom_site_charge
  Ge     Ge        0.052090000000021    0.000000000000000    0.372269999999958  0.0000
  Ge     Ge        0.452585792264616    0.048207094077836    0.351184110045181  0.0000
  Ge     Ge        0.949467194366393    0.998517628771593    0.626506044199493  0.0000
  Ge     Ge        0.552219743414774    0.038897447617357    0.090299997377117  0.0000
  Ge     Ge        0.944431681666627    0.019760747857312    0.124363292634266  0.0000
  Ge     Ge        0.446630315901360    0.043332031503218    0.835339893621950  0.0000
  Ge     Ge        0.055046777812832    0.008322901543888    0.884487784734110  0.0000
  Ge     Ge        0.175066037853958    0.283350541607277    0.256427490493237  0.0000
  Ge     Ge        0.330325531374408    0.768087893551026    0.269277222119319  0.0000
  Ge     Ge        0.828681446568358    0.281587459467593    0.703101451288621  0.0000
  Ge     Ge        0.663649954283301    0.729763443332815    0.699216964124133  0.0000
  Ge     Ge        0.843374447046522    0.688726766773757    0.688915193371001  0.0000
  Ge     Ge        0.152976083308374    0.693194260774407    0.264724253206386  0.0000
  Ge     Ge        0.353248202382794    0.354830528173050    0.260293049616576  0.0000
  Ge     Ge        0.652289930981006    0.357310882893201    0.021724239302308  0.0000
  Ge     Ge        0.355382171650375    0.361065262191609    0.945735472061692  0.0000
  Ge     Ge        0.328586352793239    0.770030303242043    0.957143602759198  0.0000
  Ge     Ge        0.174792435763000    0.298962633602851    0.943837438091946  0.0000
  Ge     Ge        0.673492752751783    0.762636881064613    0.011402546272019  0.0000
  Ge     Ge        0.830099785153278    0.305373488879256    0.013642954074139  0.0000
  Si     Si        0.553375007021802    0.019707205177612    0.599439728030671  0.0000
  Si     Si        0.651904565538055    0.328959337915475    0.715176039365305  0.0000
  Si     Si        0.847717829250158    0.709777958320403    0.997249357588948  0.0000
  Si     Si        0.152595568207931    0.697359519522633    0.958809651234189  0.0000
  O1     O1        0.123143445180993    0.144314054101805    0.345275687817082  0.0000
  O1     O1        0.381453277285259    0.900331902074308    0.371154019004542  0.0000
  O1     O1        0.877118092163644    0.141672384442181    0.609504562370715  0.0000
  O3     O3        0.606902661588311    0.857354144335562    0.607222669995884  0.0000
  O1     O1        0.907949946790090    0.799891117887761    0.602682836396245  0.0000
  O2     O2        0.593886778299229    0.196504236147276    0.646147950389991  0.0000
  O1     O1        0.085362541051771    0.796322104940979    0.350023117530029  0.0000
  O1     O1        0.416401973627361    0.249964098791606    0.354993630269172  0.0000
  O1     O1        0.024372159536182    0.028979261100614    0.529786504612270  0.0000
  O3     O3        0.528946112515913    0.034542637884144    0.451911118936140  0.0000
  O1     O1        0.971902286576244    0.022310674583556    0.282698355692248  0.0000
  O1     O1        0.484896608202467    0.999937420430585    0.198999617689271  0.0000
  O1     O1        0.980203648962902    0.018028515164746    0.783573784196913  0.0000
  O3     O3        0.477565270953452    0.999258347696223    0.680893482480094  0.0000
  O1     O1        0.585115616502031    0.247127547437962    0.103081135674921  0.0000
  O3     O3        0.908510071701642    0.820754737090511    0.076696834578836  0.0000
  O1     O1        0.419907915115239    0.252802130376282    0.855514869071744  0.0000
  O3     O3        0.095067428379082    0.806428791500354    0.876075298488474  0.0000
  O1     O1        0.367279413939971    0.920443240132879    0.861422074747193  0.0000
  O1     O1        0.122258761640977    0.161572947185014    0.849474390953711  0.0000
  O1     O1        0.629543103758555    0.909404684782918    0.104926796608303  0.0000
  O1     O1        0.881430627021756    0.182657940064806    0.114034986367523  0.0000
  O1     O1        0.516510453274723    0.990664721185434    0.939385500658587  0.0000
  O1     O1        0.023872026170011    0.053767742290226    0.037239292798231  0.0000
  O1     O1        0.163931291772017    0.489296525127323    0.316989258151952  0.0000
  O1     O1        0.341330457759188    0.558746455560197    0.315966659190295  0.0000
  O1     O1        0.840621320375788    0.480341572731114    0.638034522470837  0.0000
  O3     O3        0.654055122534080    0.514408678423746    0.650574313777806  0.0000
  O1     O1        0.269370772397287    0.241365434887566    0.261567924865769  0.0000
  O1     O1        0.235975813929125    0.807891567881408    0.277375552527217  0.0000
  O3     O3        0.732881571856659    0.241253873308452    0.710857558887909  0.0000
  O1     O1        0.756466223301652    0.781029623401496    0.677860167897256  0.0000
  O1     O1        0.145791175929242    0.273651032941172    0.099508204688286  0.0000
  O1     O1        0.360436545764007    0.788473821700583    0.113235266165419  0.0000
  O1     O1        0.860741946296109    0.272081664682008    0.859374662688107  0.0000
  O1     O1        0.639140564632645    0.759257886502037    0.855969382173370  0.0000
  O3     O3        0.871697694483792    0.690150107980115    0.849485548390951  0.0000
  O3     O3        0.625456741777011    0.358248943081084    0.860368223355848  0.0000
  O3     O3        0.123999879316362    0.682287642485335    0.104669810371229  0.0000
  O1     O1        0.384533158687675    0.355463242108691    0.104039963317757  0.0000
  O1     O1        0.658679529496778    0.563624945421108    0.076590011879033  0.0000
  O3     O3        0.838426360393230    0.522020506061718    0.055701477414609  0.0000
  O1     O1        0.349417784962335    0.568726377343810    0.897919958797664  0.0000
  O3     O3        0.161795456041927    0.509633704062065    0.896661659836238  0.0000
  O1     O1        0.736822573934083    0.255250337638928    0.029080746609645  0.0000
  O3     O3        0.768614766924836    0.807580069200542    0.003321977311131  0.0000
  O1     O1        0.268747065655303    0.261065673664245    0.933773844173349  0.0000
  O3     O3        0.232532875794819    0.796519915922376    0.963687157761478  0.0000
