data_c00744.vasp
_audit_creation_method             Generated by GULP
_audit_author_name                 Salvador R. G. Balestra
_symmetry_space_group_name_H-M     'P 1             '
_symmetry_Int_Tables_number        1

loop_
_symmetry_equiv_pos_site_id
_symmetry_equiv_pos_as_xyz
_cell_length_a                       17.6071
_cell_length_b                        7.8402
_cell_length_c                       10.1854
_cell_angle_alpha                   91.2391
_cell_angle_beta                    90.2783
_cell_angle_gamma                   88.8302

loop_
_atom_site_label
_atom_site_type_symbol
_atom_site_fract_x
_atom_site_fract_y
_atom_site_fract_z
_atom_site_charge
  Ge     Ge        0.052090000000021    0.000000000000000    0.372269999999958  0.0000
  Ge     Ge        0.451044332841878    0.944742389677164    0.377945816159264  0.0000
  Ge     Ge        0.943993122664174    0.940568265105333    0.618566381037684  0.0000
  Ge     Ge        0.548681924372313    0.998806613207150    0.113145659442564  0.0000
  Ge     Ge        0.949395614725904    0.947834466214770    0.115365033472138  0.0000
  Ge     Ge        0.442943292692481    0.937019552049806    0.856282949467584  0.0000
  Ge     Ge        0.055767817187241    0.990300525743665    0.864511250295880  0.0000
  Ge     Ge        0.149997136165501    0.310364613446092    0.300048952616544  0.0000
  Ge     Ge        0.354345056341682    0.631823900753087    0.294784695296554  0.0000
  Ge     Ge        0.824368536825761    0.229357033818654    0.734804291580962  0.0000
  Ge     Ge        0.666063338922032    0.688873032065534    0.731832304650185  0.0000
  Ge     Ge        0.848883663065073    0.628565747049090    0.729284577723690  0.0000
  Ge     Ge        0.174255082662180    0.714803120628274    0.295089453225136  0.0000
  Ge     Ge        0.328683955066649    0.225455102880571    0.295334158352163  0.0000
  Ge     Ge        0.646622414040380    0.312032598160446    0.050691763033379  0.0000
  Ge     Ge        0.844469913370995    0.639096149801416    0.051854496738102  0.0000
  Ge     Ge        0.324638382950101    0.220338079652472    0.977033709108839  0.0000
  Ge     Ge        0.171931257210079    0.697415096186169    0.978469460483096  0.0000
  Ge     Ge        0.354393280731157    0.622515876450091    0.975916100119500  0.0000
  Ge     Ge        0.826657395483690    0.237763637311154    0.052139006395666  0.0000
  Si     Si        0.554369678138610    0.985003350741629    0.622157796154541  0.0000
  Si     Si        0.644478312775810    0.293725518591257    0.741807568648990  0.0000
  Si     Si        0.147124969120688    0.301652868192391    0.988209377170129  0.0000
  Si     Si        0.667924415038942    0.708943867773907    0.043339629595307  0.0000
  O1     O1        0.085372242335175    0.203601209235787    0.390998029242490  0.0000
  O1     O1        0.416129122475926    0.744020340535459    0.393236314384550  0.0000
  O1     O1        0.865192955347339    0.068589288843581    0.643262994794344  0.0000
  O3     O3        0.615014121594819    0.832751005801888    0.640445798769218  0.0000
  O1     O1        0.917281994331429    0.735775713379214    0.647687070188211  0.0000
  O2     O2        0.587715567250941    0.169264890682943    0.661879949593366  0.0000
  O1     O1        0.125109529254414    0.854423353127025    0.395885817990200  0.0000
  O1     O1        0.379055634520528    0.094274160002864    0.396960011315440  0.0000
  O1     O1        0.972174585853389    0.959020167125979    0.457674263640574  0.0000
  O3     O3        0.530906458109513    0.987834791640069    0.469500052997726  0.0000
  O1     O1        0.027906150864714    0.978989617611708    0.207564128468570  0.0000
  O1     O1        0.476560263309731    0.956932942748837    0.214478328347896  0.0000
  O1     O1        0.023816499014084    0.999005534527606    0.704840531634845  0.0000
  O3     O3        0.475968036379910    0.949018664504794    0.696468831223627  0.0000
  O1     O1        0.584704885422066    0.199901846615426    0.141439604284613  0.0000
  O1     O1        0.906620681853146    0.755892883906753    0.142390093853829  0.0000
  O1     O1        0.363088352110752    0.064480232291790    0.877332503903181  0.0000
  O1     O1        0.125728658892214    0.835762555246582    0.876457911106279  0.0000
  O1     O1        0.418533052433133    0.730217582770051    0.885161533831296  0.0000
  O3     O3        0.086027952146536    0.192926287350065    0.907985300873830  0.0000
  O3     O3        0.621101819484990    0.845808386516062    0.129183403985075  0.0000
  O1     O1        0.880348339312079    0.102696989558459    0.143977727377461  0.0000
  O1     O1        0.515695637482859    0.002142688025725    0.954429873788956  0.0000
  O1     O1        0.977204819211678    0.941800942149502    0.953124612657931  0.0000
  O1     O1        0.162146977718397    0.513068249696403    0.356995291820292  0.0000
  O1     O1        0.340419114492481    0.432924792552909    0.351804728291552  0.0000
  O1     O1        0.843419029137173    0.422958884191464    0.668536957280522  0.0000
  O3     O3        0.649224371763529    0.479799949026160    0.678701500536206  0.0000
  O1     O1        0.232971824357456    0.189927087668927    0.301244966319882  0.0000
  O1     O1        0.269868785448976    0.748947801694029    0.291466845251743  0.0000
  O3     O3        0.727161258486331    0.203881799263034    0.742821327987113  0.0000
  O1     O1        0.760468649843808    0.726478727009975    0.714864338654499  0.0000
  O3     O3        0.120062077935237    0.328190040924686    0.137761207530360  0.0000
  O1     O1        0.386134362923412    0.613182905144567    0.135595761711473  0.0000
  O1     O1        0.858649983152295    0.220117613503614    0.892449019310367  0.0000
  O3     O3        0.637507375654053    0.712941604314393    0.893292001284608  0.0000
  O1     O1        0.873656214481225    0.616702582409101    0.891475966865679  0.0000
  O3     O3        0.614833162657874    0.318629800683753    0.889046542251481  0.0000
  O1     O1        0.140093434295986    0.727757622704930    0.136224367034173  0.0000
  O1     O1        0.359185412596914    0.203740334915944    0.134849003209471  0.0000
  O3     O3        0.656766452045262    0.520914221195252    0.102659002986452  0.0000
  O1     O1        0.837198251941694    0.441898801432037    0.115210312992471  0.0000
  O1     O1        0.345060771871013    0.417342514735004    0.917233367826181  0.0000
  O3     O3        0.156806327134659    0.486902337917772    0.926823389598169  0.0000
  O1     O1        0.731381653878942    0.200581718589504    0.055394862718068  0.0000
  O3     O3        0.756975156145300    0.746980007015707    0.044320772176804  0.0000
  O3     O3        0.227180308514087    0.197937579219381    0.985643837854439  0.0000
  O1     O1        0.267780453023687    0.728645941332820    0.973691633174521  0.0000
