data_c00701.vasp
_audit_creation_method             Generated by GULP
_audit_author_name                 Salvador R. G. Balestra
_symmetry_space_group_name_H-M     'P 1             '
_symmetry_Int_Tables_number        1

loop_
_symmetry_equiv_pos_site_id
_symmetry_equiv_pos_as_xyz
_cell_length_a                       17.5705
_cell_length_b                        7.8148
_cell_length_c                       10.2768
_cell_angle_alpha                   89.7716
_cell_angle_beta                    91.0287
_cell_angle_gamma                   88.6400

loop_
_atom_site_label
_atom_site_type_symbol
_atom_site_fract_x
_atom_site_fract_y
_atom_site_fract_z
_atom_site_charge
  Ge     Ge        0.052090000000021    0.000000000000000    0.372269999999958  0.0000
  Ge     Ge        0.447756552207909    0.955980432908565    0.406801076308480  0.0000
  Ge     Ge        0.943708338399225    0.957638925694542    0.619769799028913  0.0000
  Ge     Ge        0.556064463579947    0.997251747166079    0.162528361594360  0.0000
  Ge     Ge        0.948991014232246    0.932564256410655    0.115486384727813  0.0000
  Ge     Ge        0.446771805416067    0.934716585198613    0.910388557563269  0.0000
  Ge     Ge        0.053907969512120    0.996358841959424    0.868108730753557  0.0000
  Ge     Ge        0.151139295224181    0.313581730358201    0.303314809075040  0.0000
  Ge     Ge        0.356823587828522    0.634895319201400    0.288957335706759  0.0000
  Ge     Ge        0.821524421164618    0.242089532273262    0.726194857589188  0.0000
  Ge     Ge        0.664153208447442    0.723716951999132    0.739163443687610  0.0000
  Ge     Ge        0.846509592632413    0.645456891810585    0.738506030632175  0.0000
  Ge     Ge        0.640736047279361    0.317951788222762    0.730898263068261  0.0000
  Ge     Ge        0.174461057939453    0.716084708309540    0.294728345936661  0.0000
  Ge     Ge        0.851043098283842    0.618319641653211    0.055719892019336  0.0000
  Ge     Ge        0.322240006664082    0.219582434339047    0.987692102071783  0.0000
  Ge     Ge        0.170562859998006    0.699813666300345    0.981520619708277  0.0000
  Ge     Ge        0.352549323656190    0.619139540667027    0.975655229663702  0.0000
  Ge     Ge        0.670453381404639    0.701450950740121    0.053277527548392  0.0000
  Ge     Ge        0.823794496767914    0.219491725935016    0.041482279949024  0.0000
  Si     Si        0.545091390178537    0.008072193888602    0.662226106071456  0.0000
  Si     Si        0.327996445589410    0.237732764682959    0.296842163362253  0.0000
  Si     Si        0.646821943694862    0.304253715616323    0.039485688243535  0.0000
  Si     Si        0.145841593305589    0.301982803103847    0.993197168449215  0.0000
  O1     O1        0.087785593793519    0.201501342570182    0.391952439147681  0.0000
  O1     O1        0.420935164389995    0.749607693678206    0.378684473319134  0.0000
  O1     O1        0.869112154512223    0.101063328424354    0.628618057089952  0.0000
  O3     O3        0.614437335355229    0.872012627350521    0.643449106091890  0.0000
  O1     O1        0.913813135308704    0.756594186220209    0.657524610821441  0.0000
  O3     O3        0.574303944712199    0.200206101846488    0.645206525059072  0.0000
  O1     O1        0.127161666225351    0.856863230584807    0.392774638947064  0.0000
  O3     O3        0.371972864151591    0.097856527328473    0.384957170592332  0.0000
  O1     O1        0.974400206369597    0.957566459459505    0.460867832660945  0.0000
  O3     O3        0.474016494506327    0.969424082614340    0.570367516984173  0.0000
  O1     O1        0.023969941514890    0.985630653339297    0.210216248659114  0.0000
  O1     O1        0.525395095719161    0.010407925284067    0.319878512796785  0.0000
  O1     O1        0.022581500010360    0.014269868425950    0.709223677088997  0.0000
  O3     O3        0.519574619774882    0.988830061010413    0.812146837450526  0.0000
  O3     O3        0.586992999042935    0.198239593227892    0.119745298255903  0.0000
  O1     O1        0.917297739166872    0.728793437725344    0.143125276862643  0.0000
  O1     O1        0.367686815258597    0.069935786280046    0.897574186440417  0.0000
  O1     O1        0.124259608269924    0.840550555234905    0.878307242675039  0.0000
  O1     O1        0.414551165427959    0.732004729315252    0.883256793931208  0.0000
  O3     O3        0.082669015816604    0.197805956617993    0.915821743306652  0.0000
  O1     O1        0.625564111262662    0.839663028368644    0.156076950467571  0.0000
  O1     O1        0.870529935408203    0.068033300582020    0.132467444062746  0.0000
  O1     O1        0.478694135358571    0.945974238945052    0.069124053331673  0.0000
  O1     O1        0.976382398953682    0.940260482156923    0.955188655165979  0.0000
  O1     O1        0.158619857861222    0.515627616129977    0.359465608489779  0.0000
  O3     O3        0.343985482658433    0.428969363922711    0.347852813343988  0.0000
  O1     O1        0.833551122761833    0.447534549982059    0.670851528920182  0.0000
  O1     O1        0.647267432540264    0.522844675444699    0.675509644938943  0.0000
  O3     O3        0.238349720538291    0.204678655729238    0.303839067581154  0.0000
  O1     O1        0.270569898609685    0.744274124964380    0.291772101160275  0.0000
  O1     O1        0.725551215976208    0.206689798680666    0.721842690589206  0.0000
  O1     O1        0.760306726919377    0.757267461830061    0.736227698341378  0.0000
  O3     O3        0.121246496101500    0.327447894612318    0.141559527142557  0.0000
  O1     O1        0.387869079484069    0.617270845215268    0.133443111426831  0.0000
  O1     O1        0.854939919132415    0.213576319973173    0.883526388951918  0.0000
  O1     O1        0.634702183253764    0.734714997051806    0.898056838192589  0.0000
  O1     O1        0.876735347335925    0.606853558719552    0.894928433372401  0.0000
  O3     O3        0.616104455241772    0.336230430403453    0.893032775178712  0.0000
  O1     O1        0.138810772191286    0.731229685332441    0.137003571496079  0.0000
  O3     O3        0.355053866340478    0.219221284991240    0.148204688199148  0.0000
  O3     O3        0.659572866384308    0.489347254473219    0.102266645758407  0.0000
  O1     O1        0.842299429267191    0.414939286814108    0.111678306989602  0.0000
  O1     O1        0.341612168193838    0.416428456196202    0.920971805719917  0.0000
  O3     O3        0.156197010994904    0.489246575082715    0.932153049247650  0.0000
  O3     O3        0.725997075213679    0.194857472794605    0.036271674758465  0.0000
  O1     O1        0.766105306695895    0.733884397161866    0.056247105467698  0.0000
  O3     O3        0.224976120244719    0.192248447975259    0.987018255932817  0.0000
  O1     O1        0.266437117301939    0.729514336725434    0.979517697692672  0.0000
