data_c00716.vasp
_audit_creation_method             Generated by GULP
_audit_author_name                 Salvador R. G. Balestra
_symmetry_space_group_name_H-M     'P 1             '
_symmetry_Int_Tables_number        1

loop_
_symmetry_equiv_pos_site_id
_symmetry_equiv_pos_as_xyz
_cell_length_a                       17.6856
_cell_length_b                        7.7945
_cell_length_c                       10.2235
_cell_angle_alpha                   90.6837
_cell_angle_beta                    90.0256
_cell_angle_gamma                   90.6689

loop_
_atom_site_label
_atom_site_type_symbol
_atom_site_fract_x
_atom_site_fract_y
_atom_site_fract_z
_atom_site_charge
  Ge     Ge        0.052090000000021    0.000000000000000    0.372269999999958  0.0000
  Ge     Ge        0.445230549553902    0.048518939390185    0.353491401002150  0.0000
  Ge     Ge        0.946440631464590    0.032136321948557    0.625312698438245  0.0000
  Ge     Ge        0.550483946096490    0.978626510937090    0.098333811428929  0.0000
  Ge     Ge        0.941327075757240    0.035554815871030    0.130184312460695  0.0000
  Ge     Ge        0.445590488649427    0.032387212616338    0.843947947041827  0.0000
  Ge     Ge        0.049728562009973    0.974740032687596    0.882512429572953  0.0000
  Ge     Ge        0.169352201225694    0.293071176175541    0.272077849902377  0.0000
  Ge     Ge        0.323221531493985    0.768489271652163    0.265458946397894  0.0000
  Ge     Ge        0.845802096254462    0.347023998603711    0.692999926847913  0.0000
  Ge     Ge        0.640952637235948    0.680207715694249    0.712935737207672  0.0000
  Ge     Ge        0.821825050572319    0.753788631243065    0.703373813712313  0.0000
  Ge     Ge        0.666360183433035    0.274475180642989    0.700987684377490  0.0000
  Ge     Ge        0.349066125500106    0.363116514876597    0.279111498491552  0.0000
  Ge     Ge        0.673121462391698    0.260842277582815    0.018907919588685  0.0000
  Ge     Ge        0.825327906099073    0.740173088504367    0.018512075053393  0.0000
  Ge     Ge        0.150464094301274    0.661324251130433    0.938586339234305  0.0000
  Ge     Ge        0.327911928595373    0.741131532645396    0.948596828720471  0.0000
  Ge     Ge        0.173531132647931    0.260235947193613    0.956957054186251  0.0000
  Ge     Ge        0.646340851585339    0.661561071981581    0.030650084562099  0.0000
  Si     Si        0.548538337069988    0.991335880912091    0.598240871448980  0.0000
  Si     Si        0.147954088126430    0.689077125795148    0.252681326652731  0.0000
  Si     Si        0.349560697616334    0.338403735300592    0.968222918971613  0.0000
  Si     Si        0.848125708182325    0.339581351612186    0.005198693494638  0.0000
  O1     O1        0.119525784987442    0.158469395204405    0.371727698365719  0.0000
  O1     O1        0.367564370424546    0.914608610597246    0.364906058604770  0.0000
  O1     O1        0.912114138515995    0.236086659007392    0.605875099254854  0.0000
  O3     O3        0.572894922075912    0.800307749679613    0.635568325106583  0.0000
  O1     O1        0.871078893993662    0.892284155395905    0.606671465238878  0.0000
  O3     O3        0.618480009835314    0.122417329190681    0.608333776210441  0.0000
  O3     O3        0.083556655168967    0.801102854087298    0.320539616425032  0.0000
  O1     O1        0.414042166266348    0.254724741751448    0.370490561387756  0.0000
  O1     O1        0.022718984933515    0.982154878517128    0.532699331462987  0.0000
  O3     O3        0.520352041901788    0.991577796062348    0.448282234532934  0.0000
  O1     O1        0.971600062282171    0.053875522872292    0.289476062567670  0.0000
  O1     O1        0.476100040617828    0.028403557984405    0.193571526534926  0.0000
  O1     O1        0.975328282732344    0.021787376038491    0.786956305901614  0.0000
  O3     O3        0.477288428887050    0.052508791429865    0.684052898465303  0.0000
  O1     O1        0.627427487316656    0.116082475582917    0.114021997965347  0.0000
  O1     O1        0.873059438100474    0.877856530382899    0.120798240127789  0.0000
  O3     O3        0.410446593935659    0.231464118081098    0.887335030355124  0.0000
  O1     O1        0.082534371235662    0.769289879115522    0.856544079658376  0.0000
  O1     O1        0.378733668629552    0.871290429784798    0.847661601145893  0.0000
  O1     O1        0.127079614059298    0.110161677055312    0.864795799869383  0.0000
  O1     O1        0.583243583321789    0.774699604389069    0.123246631861147  0.0000
  O3     O3        0.910572841680574    0.235904663173689    0.082990896549705  0.0000
  O1     O1        0.522041174445363    0.985602476543960    0.936778088559373  0.0000
  O1     O1        0.020244279865177    0.983735702370950    0.042842647767753  0.0000
  O3     O3        0.157540214989556    0.506092791978878    0.321683345460531  0.0000
  O1     O1        0.341453888733080    0.570047936102627    0.330198200284749  0.0000
  O1     O1        0.834846064424411    0.550355270022187    0.638819660279720  0.0000
  O1     O1        0.649875505751180    0.478444562781589    0.644755709606188  0.0000
  O1     O1        0.264166724762686    0.254477444024499    0.285531253070162  0.0000
  O3     O3        0.226321180726926    0.798024906089357    0.260403873502995  0.0000
  O1     O1        0.761250074518481    0.235966851627459    0.687500496441448  0.0000
  O1     O1        0.726218740688038    0.789052251959584    0.706843765637370  0.0000
  O1     O1        0.139483870457255    0.253243371626152    0.114804162828402  0.0000
  O1     O1        0.356329642506818    0.780958053426155    0.107155248076568  0.0000
  O3     O3        0.873330855101957    0.364483211066889    0.855962855366583  0.0000
  O1     O1        0.614837311164256    0.645839562713356    0.871084325052081  0.0000
  O1     O1        0.856451665465934    0.769588968241601    0.861214796191776  0.0000
  O1     O1        0.638883854179685    0.255007236219713    0.861211262424638  0.0000
  O3     O3        0.128030227338515    0.643844887875166    0.103638489670805  0.0000
  O3     O3        0.377599563643443    0.365988604577820    0.116327613846653  0.0000
  O1     O1        0.657505400253120    0.460120414254590    0.088452409945255  0.0000
  O3     O3        0.836762611062279    0.527969961276202    0.066839126179363  0.0000
  O3     O3        0.338267902690393    0.525084381791451    0.907093231069605  0.0000
  O1     O1        0.157823097772946    0.455334038360308    0.884324967034683  0.0000
  O3     O3        0.769896040357819    0.229984001056270    0.010301885142896  0.0000
  O1     O1        0.730313792768182    0.776278740038498    0.025133724941574  0.0000
  O3     O3        0.270531555178949    0.231807813869348    0.966693228668809  0.0000
  O1     O1        0.233464038720885    0.777993728052279    0.930267051622120  0.0000
