data_c00700.vasp
_audit_creation_method             Generated by GULP
_audit_author_name                 Salvador R. G. Balestra
_symmetry_space_group_name_H-M     'P 1             '
_symmetry_Int_Tables_number        1

loop_
_symmetry_equiv_pos_site_id
_symmetry_equiv_pos_as_xyz
_cell_length_a                       16.8981
_cell_length_b                        7.8783
_cell_length_c                       10.6334
_cell_angle_alpha                   84.4776
_cell_angle_beta                    91.4519
_cell_angle_gamma                   89.4898

loop_
_atom_site_label
_atom_site_type_symbol
_atom_site_fract_x
_atom_site_fract_y
_atom_site_fract_z
_atom_site_charge
  Ge     Ge        0.052090000000021    0.000000000000000    0.372269999999958  0.0000
  Ge     Ge        0.457179768500599    0.028737709379835    0.360209106389946  0.0000
  Ge     Ge        0.949849627659985    0.053680975547949    0.615440674331756  0.0000
  Ge     Ge        0.571921122847317    0.034142917416804    0.128438456121444  0.0000
  Ge     Ge        0.941860327413802    0.006621935802658    0.120041082488222  0.0000
  Ge     Ge        0.444467572772287    0.122597861404812    0.887741236090192  0.0000
  Ge     Ge        0.051818656130890    0.112362698795359    0.878917402626419  0.0000
  Ge     Ge        0.172767267185605    0.299306289208494    0.240695596965967  0.0000
  Ge     Ge        0.348580292105062    0.727003618041056    0.298729078007576  0.0000
  Ge     Ge        0.826659353146681    0.328350455390209    0.691798014632909  0.0000
  Ge     Ge        0.657499727575192    0.803097893753428    0.715343977436666  0.0000
  Ge     Ge        0.843059855550806    0.735059898127957    0.688376552636900  0.0000
  Ge     Ge        0.638963971289683    0.381010159842848    0.719701215834914  0.0000
  Ge     Ge        0.151236486777990    0.702621688605637    0.291080249449085  0.0000
  Ge     Ge        0.862563883175572    0.686144213444685    0.001692225319338  0.0000
  Ge     Ge        0.348992752428036    0.456909915275889    0.943216221277364  0.0000
  Ge     Ge        0.149939491306675    0.786887305942632    0.999203129916655  0.0000
  Ge     Ge        0.345530677927377    0.824010142298066    0.003337426412030  0.0000
  Ge     Ge        0.164114857564786    0.406433946655888    0.935424490016712  0.0000
  Ge     Ge        0.837442767527153    0.301038310287130    0.991561845659343  0.0000
  Si     Si        0.531609909418198    0.097029760499918    0.627081412231424  0.0000
  Si     Si        0.352206000851090    0.349441891999437    0.250025086778533  0.0000
  Si     Si        0.648114578402894    0.368849509794697    0.004310116241542  0.0000
  Si     Si        0.673583161782309    0.753340491650203    0.014784898732476  0.0000
  O1     O1        0.125453139343747    0.127545604269582    0.310334447327027  0.0000
  O1     O1        0.400232362455264    0.853813133401502    0.395541052624380  0.0000
  O1     O1        0.877365589919060    0.209401757886208    0.593174525749617  0.0000
  O3     O3        0.595924288360330    0.943724499785748    0.625303150917081  0.0000
  O1     O1        0.908303353155903    0.857555154669317    0.600704699190737  0.0000
  O3     O3        0.571426464004477    0.280504946487675    0.629182435688296  0.0000
  O1     O1        0.092523708640121    0.797137522608205    0.395112781788974  0.0000
  O3     O3        0.416051048077665    0.199470233438601    0.261534098541691  0.0000
  O1     O1        0.024230960891528    0.077395584349625    0.510058787696279  0.0000
  O3     O3        0.476205449538734    0.105455025739984    0.504168929850917  0.0000
  O1     O1        0.968152462869793    0.006273228582722    0.275131075826172  0.0000
  O1     O1        0.541471448565852    0.992352534067592    0.279695549175631  0.0000
  O1     O1        0.985942583056409    0.058545265608880    0.767134823262865  0.0000
  O3     O3        0.480174330628631    0.058022540102846    0.751455752507139  0.0000
  O3     O3        0.619938696686056    0.232281100093481    0.112618196192926  0.0000
  O1     O1        0.930790637384679    0.804193573984346    0.076006708545170  0.0000
  O1     O1        0.421597110264300    0.332794984183688    0.886338668445192  0.0000
  O1     O1        0.124499633234582    0.953585735612022    0.895290940789180  0.0000
  O1     O1        0.355732350507247    0.014480109130749    0.917910240776262  0.0000
  O1     O1        0.101661745326648    0.297196869061770    0.841308390452137  0.0000
  O3     O3        0.640581242506775    0.873893079040754    0.112945857808258  0.0000
  O1     O1        0.853504860064453    0.120708477859853    0.088937586264081  0.0000
  O1     O1        0.498680710877666    0.030238363306402    0.016430449114044  0.0000
  O1     O1        0.005183650686623    0.121394335794733    0.020753082367402  0.0000
  O1     O1        0.134561481882995    0.489987797773901    0.280619390129516  0.0000
  O3     O3        0.378426662823605    0.514300868295974    0.319524728038226  0.0000
  O1     O1        0.832853735200296    0.539735287632671    0.634040320124914  0.0000
  O1     O1        0.641733144890805    0.595780590790171    0.681394614691455  0.0000
  O3     O3        0.269228025045603    0.279026036331244    0.302419727539265  0.0000
  O1     O1        0.249367587141197    0.736176550023415    0.326254365037983  0.0000
  O1     O1        0.727514885947747    0.282113822175542    0.697646833835424  0.0000
  O1     O1        0.754281506022997    0.845447159556439    0.683452805326434  0.0000
  O1     O1        0.168740204886931    0.286581040975154    0.080845103950673  0.0000
  O1     O1        0.379469273641030    0.826540633984623    0.157135748975772  0.0000
  O1     O1        0.870236693630456    0.286815203925735    0.840752905806070  0.0000
  O3     O3        0.644457951795601    0.824522631159236    0.873976216878485  0.0000
  O1     O1        0.877187131757077    0.704189414141857    0.842810227202122  0.0000
  O3     O3        0.601608344095613    0.339745043818436    0.873108210063568  0.0000
  O1     O1        0.117109520233456    0.810033464114060    0.148952235233937  0.0000
  O3     O3        0.333851164850765    0.419376030278896    0.104458529404116  0.0000
  O2     O2        0.638486220984217    0.561443610306980    0.043950341080599  0.0000
  O1     O1        0.876268877977518    0.475886076138364    0.055771147464021  0.0000
  O1     O1        0.383494773073388    0.660727880470428    0.923897796672298  0.0000
  O1     O1        0.118483085180971    0.598749612711170    0.945890011422258  0.0000
  O3     O3        0.738474604923763    0.355644194463128    0.960722621961447  0.0000
  O3     O3        0.767824678748158    0.756038943362992    0.029222435904925  0.0000
  O1     O1        0.257578904126841    0.426269573910427    0.874043280279012  0.0000
  O1     O1        0.249758573072391    0.751464270961896    0.025103176926509  0.0000
