data_c00796.vasp
_audit_creation_method             Generated by GULP
_audit_author_name                 Salvador R. G. Balestra
_symmetry_space_group_name_H-M     'P 1             '
_symmetry_Int_Tables_number        1

loop_
_symmetry_equiv_pos_site_id
_symmetry_equiv_pos_as_xyz
_cell_length_a                       17.5681
_cell_length_b                        7.8402
_cell_length_c                       10.1903
_cell_angle_alpha                   88.6183
_cell_angle_beta                    90.5056
_cell_angle_gamma                   88.6737

loop_
_atom_site_label
_atom_site_type_symbol
_atom_site_fract_x
_atom_site_fract_y
_atom_site_fract_z
_atom_site_charge
  Ge     Ge        0.052090000000021    0.000000000000000    0.372269999999958  0.0000
  Ge     Ge        0.448797373541292    0.950574167660272    0.380335326877374  0.0000
  Ge     Ge        0.944505748836272    0.958171499431116    0.620022140945610  0.0000
  Ge     Ge        0.549539443943730    0.005090446052479    0.120817350804714  0.0000
  Ge     Ge        0.955652357675956    0.940224884253829    0.109228745306939  0.0000
  Ge     Ge        0.444172491375620    0.968256558038833    0.861363879215517  0.0000
  Ge     Ge        0.060812908496180    0.011132016033813    0.857487941315724  0.0000
  Ge     Ge        0.147176664950947    0.315282138418169    0.290988144471526  0.0000
  Ge     Ge        0.353736061378025    0.643180007099350    0.295447724672361  0.0000
  Ge     Ge        0.827810488591657    0.255114685215358    0.727472439856388  0.0000
  Ge     Ge        0.669625618993122    0.720949159061963    0.733526175891829  0.0000
  Ge     Ge        0.644256479256257    0.320856632321116    0.731222718990324  0.0000
  Ge     Ge        0.174579931318833    0.720909167091562    0.292947661425972  0.0000
  Ge     Ge        0.328342349969561    0.235123850230758    0.289621424441376  0.0000
  Ge     Ge        0.650222527240470    0.315242643888078    0.050733983231020  0.0000
  Ge     Ge        0.851956769776724    0.632530409810063    0.051393149480568  0.0000
  Ge     Ge        0.330689069475703    0.261578207161607    0.973900349133381  0.0000
  Ge     Ge        0.145763304281620    0.333026174053623    0.974834031546003  0.0000
  Ge     Ge        0.673839590718741    0.717781002872165    0.053526976538094  0.0000
  Ge     Ge        0.829908251760763    0.229240755500521    0.043950986500326  0.0000
  Si     Si        0.553615202706413    0.011208216738028    0.621884578945296  0.0000
  Si     Si        0.847831161556881    0.648950539029461    0.736281804056887  0.0000
  Si     Si        0.173445773777476    0.724748936593417    0.982671295350695  0.0000
  Si     Si        0.351716740277286    0.655996973680603    0.985403688765958  0.0000
  O1     O1        0.086260380664012    0.201749223170380    0.389001209380819  0.0000
  O1     O1        0.417052788582893    0.746061506329823    0.393783781607379  0.0000
  O1     O1        0.877517589586250    0.118344234148448    0.629948872776837  0.0000
  O3     O3        0.626189059320222    0.887113117476547    0.646409359358215  0.0000
  O3     O3        0.910008613085131    0.760296801757082    0.661786493707201  0.0000
  O3     O3        0.576340463668136    0.203836373518748    0.650862089831326  0.0000
  O1     O1        0.125321287441485    0.851729458026469    0.394218380935647  0.0000
  O1     O1        0.375340653852206    0.096519511803242    0.396061105387502  0.0000
  O1     O1        0.972390787736610    0.955759225061062    0.457764602265415  0.0000
  O3     O3        0.528470445048886    0.995337510561826    0.470399351479425  0.0000
  O1     O1        0.030468987443370    0.981251367633871    0.206707027890153  0.0000
  O1     O1        0.473898151664459    0.971465293839688    0.216855972326800  0.0000
  O1     O1        0.029740958067038    0.995007744458042    0.698262320355843  0.0000
  O3     O3        0.479276634594218    0.955871297102767    0.702875121782629  0.0000
  O1     O1        0.587453634671702    0.202978764125496    0.143167200770637  0.0000
  O1     O1        0.921838568378310    0.736647181642147    0.131209785452301  0.0000
  O1     O1        0.375867922296168    0.126747444193591    0.869117479374212  0.0000
  O3     O3        0.139498089737718    0.878708709983457    0.893495782872655  0.0000
  O3     O3        0.403943947330301    0.773197641155189    0.896523453006599  0.0000
  O1     O1        0.085624129917020    0.219593658665542    0.879497980329466  0.0000
  O1     O1        0.621085706133131    0.852797865446795    0.145903093714304  0.0000
  O1     O1        0.881230777255670    0.083073971018314    0.135277902633083  0.0000
  O1     O1        0.521092046726715    0.003034662079874    0.958111215176195  0.0000
  O1     O1        0.983370689843331    0.956577458466735    0.947672720050492  0.0000
  O1     O1        0.161395626178787    0.513618327004649    0.348477094399015  0.0000
  O1     O1        0.341947007409040    0.438542177648695    0.346731584381071  0.0000
  O3     O3        0.839479979180025    0.464928191526380    0.672062376890330  0.0000
  O1     O1        0.648905477925901    0.526997831082143    0.668749897803822  0.0000
  O1     O1        0.232621486656042    0.201369824115381    0.285124632352612  0.0000
  O1     O1        0.269655304566990    0.760281441041414    0.300588563858264  0.0000
  O1     O1        0.731791683588915    0.220192778243832    0.721133580226542  0.0000
  O3     O3        0.767100181522293    0.750985997916468    0.729897148742291  0.0000
  O1     O1        0.112533486291871    0.329271125677657    0.132338501113753  0.0000
  O3     O3        0.384427424486790    0.642938258548762    0.133126486623629  0.0000
  O1     O1        0.861556927156518    0.221270321414206    0.884067002900451  0.0000
  O1     O1        0.641355876181385    0.730511988291501    0.893303962756720  0.0000
  O3     O3        0.872953903107659    0.613284097556730    0.885963694397458  0.0000
  O1     O1        0.618000713548751    0.341509632888406    0.891078077576876  0.0000
  O3     O3        0.142290302868801    0.736218155633838    0.130257021701156  0.0000
  O1     O1        0.362775338937654    0.222128872856816    0.131694879286953  0.0000
  O1     O1        0.664588696853568    0.510976920788013    0.113388721643540  0.0000
  O1     O1        0.842531962960628    0.429039677496765    0.109077106264555  0.0000
  O3     O3        0.350203073421873    0.469825109321165    0.925299059197593  0.0000
  O3     O3        0.150190288886047    0.545186298643813    0.922142498326418  0.0000
  O1     O1        0.734043009089062    0.195875152182970    0.042781399299257  0.0000
  O1     O1        0.769479248704254    0.755089739723945    0.060242299362226  0.0000
  O1     O1        0.234470840868660    0.237504080422903    0.969086448915111  0.0000
  O2     O2        0.265336762526614    0.733743590331847    0.992794885166765  0.0000
