data_c00768.vasp
_audit_creation_method             Generated by GULP
_audit_author_name                 Salvador R. G. Balestra
_symmetry_space_group_name_H-M     'P 1             '
_symmetry_Int_Tables_number        1

loop_
_symmetry_equiv_pos_site_id
_symmetry_equiv_pos_as_xyz
_cell_length_a                       17.6659
_cell_length_b                        7.7733
_cell_length_c                       10.0412
_cell_angle_alpha                   91.4451
_cell_angle_beta                    91.1690
_cell_angle_gamma                   92.6096

loop_
_atom_site_label
_atom_site_type_symbol
_atom_site_fract_x
_atom_site_fract_y
_atom_site_fract_z
_atom_site_charge
  Ge     Ge        0.052090000000021    0.000000000000000    0.372269999999958  0.0000
  Ge     Ge        0.457004145187069    0.078552184426821    0.319272665610548  0.0000
  Ge     Ge        0.935822715700711    0.036645037532134    0.610215966282175  0.0000
  Ge     Ge        0.544592583772921    0.980691330384942    0.043862053780424  0.0000
  Ge     Ge        0.940404411138310    0.037593322648588    0.119056250723921  0.0000
  Ge     Ge        0.424679688933542    0.036804982596463    0.799907006070048  0.0000
  Ge     Ge        0.041186974351391    0.961040439113835    0.863742466392622  0.0000
  Ge     Ge        0.175270062024764    0.284628132051075    0.260586596050515  0.0000
  Ge     Ge        0.327617167142412    0.785822545473174    0.236734277171408  0.0000
  Ge     Ge        0.832234346403251    0.338435295007728    0.669799614677129  0.0000
  Ge     Ge        0.629724504417247    0.685553723927590    0.681269074767441  0.0000
  Ge     Ge        0.810482692812690    0.751869843812132    0.679173820244260  0.0000
  Ge     Ge        0.147968458843388    0.689416556280503    0.248706540934176  0.0000
  Ge     Ge        0.353129736759950    0.378060225349513    0.250202335902287  0.0000
  Ge     Ge        0.817335257999077    0.741688773468000    0.000714428584158  0.0000
  Ge     Ge        0.135380881574092    0.647920543720280    0.927184525713095  0.0000
  Ge     Ge        0.315567697370859    0.747188981734218    0.917673463592552  0.0000
  Ge     Ge        0.167979268444706    0.251549638260139    0.936508338345947  0.0000
  Ge     Ge        0.637127750582893    0.657580273076078    0.011895073407112  0.0000
  Ge     Ge        0.842757172514587    0.332364908898114    0.986772505388872  0.0000
  Si     Si        0.542288087116553    0.001841121618544    0.580331409189546  0.0000
  Si     Si        0.659227645530607    0.301153043515240    0.675667064707644  0.0000
  Si     Si        0.669354486033513    0.281572108112272    0.990215709808207  0.0000
  Si     Si        0.343877098995618    0.350695720844994    0.932338803021544  0.0000
  O1     O1        0.126677754354786    0.147457311909531    0.361789984880340  0.0000
  O1     O1        0.382395620186216    0.930175528986620    0.331267854818267  0.0000
  O1     O1        0.898304973344636    0.231580869213734    0.579584965257278  0.0000
  O3     O3        0.562926277972305    0.806020038972519    0.601193274079246  0.0000
  O1     O1        0.862152460855309    0.886776730593829    0.581180424372956  0.0000
  O2     O2        0.609787888605790    0.124161399195559    0.649571243675147  0.0000
  O1     O1        0.082921862439824    0.797984567626118    0.337291312772288  0.0000
  O1     O1        0.422504989452201    0.280554276662656    0.337459299451806  0.0000
  O1     O1        0.019028067563804    0.002970373655241    0.532708238840639  0.0000
  O3     O3        0.532498697183384    0.040156901711125    0.424856766423288  0.0000
  O1     O1        0.972936504673777    0.048737785545603    0.281707649320193  0.0000
  O1     O1        0.490264006290556    0.072486719833636    0.159548935116662  0.0000
  O1     O1        0.962899486605867    0.007873448234660    0.776001675217724  0.0000
  O3     O3        0.461366859843680    0.045163985447719    0.641031660787155  0.0000
  O3     O3        0.628405916559480    0.101576405885209    0.015140152169574  0.0000
  O1     O1        0.865602784765011    0.889096417604666    0.102394231648423  0.0000
  O3     O3        0.402698763080670    0.243658722011897    0.847683770100931  0.0000
  O1     O1        0.069477110591275    0.753875861048132    0.837834632427490  0.0000
  O1     O1        0.350154546606303    0.888965942385572    0.803522155713488  0.0000
  O1     O1        0.120396580312665    0.095581093439653    0.843207887611389  0.0000
  O1     O1        0.574719325247285    0.783804980779109    0.093252564696053  0.0000
  O1     O1        0.910525085035886    0.237679653471369    0.079252104481096  0.0000
  O1     O1        0.495729893690074    0.959686865807425    0.895833591711596  0.0000
  O1     O1        0.016853051375898    0.979677671894215    0.029320817377584  0.0000
  O1     O1        0.165526197395947    0.493979670702705    0.315803884309547  0.0000
  O1     O1        0.342221584113082    0.585054629234442    0.300681067289606  0.0000
  O1     O1        0.850912750893628    0.554029897208545    0.669858387226983  0.0000
  O3     O3        0.613102931602505    0.465960712712258    0.637717542425013  0.0000
  O1     O1        0.270800344974141    0.252776867647343    0.263138140973595  0.0000
  O1     O1        0.231788766676639    0.813873606255472    0.242394681183128  0.0000
  O3     O3        0.739888014966407    0.293606996409207    0.606414468704657  0.0000
  O1     O1        0.718095589318732    0.735159349487257    0.622904554762075  0.0000
  O1     O1        0.140742495405588    0.248799350236835    0.099916953127805  0.0000
  O1     O1        0.355881751614522    0.796998200472224    0.072757819714945  0.0000
  O1     O1        0.845107440569927    0.255333258984296    0.825421318372221  0.0000
  O1     O1        0.623907255955894    0.718168316671431    0.848462731717234  0.0000
  O1     O1        0.809751023472038    0.821374370877914    0.843006052462989  0.0000
  O2     O2        0.683003943753094    0.329655062350310    0.833413873191271  0.0000
  O1     O1        0.111732884926512    0.640981988021229    0.092159931633635  0.0000
  O3     O3        0.374624181195846    0.385961752457184    0.081647732923619  0.0000
  O3     O3        0.619852759473552    0.439623901029023    0.040989542903092  0.0000
  O1     O1        0.862748826073597    0.550444214549255    0.990950033275370  0.0000
  O3     O3        0.330973994579815    0.534836467204065    0.868525298195079  0.0000
  O1     O1        0.145020597509979    0.444150348034670    0.867212417063427  0.0000
  O3     O3        0.753375768806982    0.286830716700002    0.053067286039238  0.0000
  O1     O1        0.729043703808813    0.700068826325417    0.062831446141837  0.0000
  O3     O3        0.265351764447935    0.235420209816918    0.933873439401720  0.0000
  O1     O1        0.220425090197573    0.766947413989153    0.927444502573864  0.0000
