data_c00772.vasp
_audit_creation_method             Generated by GULP
_audit_author_name                 Salvador R. G. Balestra
_symmetry_space_group_name_H-M     'P 1             '
_symmetry_Int_Tables_number        1

loop_
_symmetry_equiv_pos_site_id
_symmetry_equiv_pos_as_xyz
_cell_length_a                       17.6446
_cell_length_b                        7.8308
_cell_length_c                       10.1131
_cell_angle_alpha                   90.6916
_cell_angle_beta                    91.0163
_cell_angle_gamma                   88.8314

loop_
_atom_site_label
_atom_site_type_symbol
_atom_site_fract_x
_atom_site_fract_y
_atom_site_fract_z
_atom_site_charge
  Ge     Ge        0.052090000000021    0.000000000000000    0.372269999999958  0.0000
  Ge     Ge        0.444531361972491    0.957384774087185    0.378623613353134  0.0000
  Ge     Ge        0.941098478265598    0.943959740734995    0.613533077750931  0.0000
  Ge     Ge        0.549036758689006    0.000700828880580    0.123721508689015  0.0000
  Ge     Ge        0.951983465172616    0.937402267578191    0.112069993523412  0.0000
  Ge     Ge        0.444637934600586    0.936058537937779    0.863911694893978  0.0000
  Ge     Ge        0.055465621973405    0.988521687934477    0.860018651247572  0.0000
  Ge     Ge        0.150567697503587    0.311802142194362    0.302915314468863  0.0000
  Ge     Ge        0.352730125374347    0.636607503766747    0.295905228335990  0.0000
  Ge     Ge        0.821786112791379    0.230812434449114    0.728139696183064  0.0000
  Ge     Ge        0.663513549952213    0.696365538073203    0.730689227514586  0.0000
  Ge     Ge        0.846209918354066    0.629878735303758    0.725740486425963  0.0000
  Ge     Ge        0.171537623975980    0.714279497356103    0.293436304587152  0.0000
  Ge     Ge        0.648867482766271    0.309159557780604    0.055557123504503  0.0000
  Ge     Ge        0.849441126204994    0.627532602032905    0.050524426127944  0.0000
  Ge     Ge        0.323789173583347    0.220575384185718    0.986207101422290  0.0000
  Ge     Ge        0.171183301334989    0.694578549866907    0.975647266781672  0.0000
  Ge     Ge        0.354188842607894    0.622999935974563    0.978121483552969  0.0000
  Ge     Ge        0.671347312812600    0.713322737866104    0.051239087059273  0.0000
  Ge     Ge        0.826353150846699    0.224008612847533    0.048019428838629  0.0000
  Si     Si        0.550690339520774    0.993662678281045    0.624501128936678  0.0000
  Si     Si        0.643423924101796    0.301031355600313    0.741642004921674  0.0000
  Si     Si        0.326182010587575    0.239582321596043    0.301350980053328  0.0000
  Si     Si        0.147301136120335    0.297535576516965    0.987225731800227  0.0000
  O1     O1        0.087697714719244    0.201227404581158    0.393689915033407  0.0000
  O1     O1        0.409806685227402    0.756636840830671    0.398770224737374  0.0000
  O1     O1        0.863139209503319    0.074606988654020    0.633401006851172  0.0000
  O3     O3        0.612166271788639    0.841264721074948    0.636267845315440  0.0000
  O1     O1        0.913632711078828    0.739780605291797    0.644072339418161  0.0000
  O2     O2        0.583716500075940    0.177216644307439    0.667525528791463  0.0000
  O1     O1        0.125009753756547    0.854098319546930    0.396046890123376  0.0000
  O3     O3        0.373160289063040    0.111341061533630    0.395169217689646  0.0000
  O1     O1        0.970815454337296    0.959388642695011    0.452223836794320  0.0000
  O3     O3        0.524035628177898    0.003334008402590    0.471800607226420  0.0000
  O1     O1        0.029606189535370    0.980619614623703    0.205193102389034  0.0000
  O1     O1        0.472926712617326    0.962001431464889    0.216339926195795  0.0000
  O1     O1        0.021718053600588    0.001694017357971    0.699668414405181  0.0000
  O3     O3        0.474012181091527    0.955345392425703    0.701951679442212  0.0000
  O1     O1        0.584084136909962    0.203164153665000    0.144763755532705  0.0000
  O1     O1        0.916094774250547    0.737639653870954    0.138653475895268  0.0000
  O1     O1        0.365672291953616    0.061900337818587    0.896352866264308  0.0000
  O1     O1        0.125381053021227    0.833547338487274    0.870522807126028  0.0000
  O1     O1        0.417861373973844    0.728484511409972    0.885179992684132  0.0000
  O3     O3        0.085355376922587    0.190261244076363    0.906998488148704  0.0000
  O1     O1        0.621566275699884    0.853245653569510    0.147941703505032  0.0000
  O1     O1        0.880047102807195    0.085513211517285    0.139416587073462  0.0000
  O1     O1        0.520241123278103    0.991360570295617    0.959853863230979  0.0000
  O1     O1        0.977621952704443    0.936825939245966    0.948228043806076  0.0000
  O1     O1        0.157159402953083    0.514951416994984    0.359520080948567  0.0000
  O3     O3        0.339114613793916    0.433122926654646    0.353124895046563  0.0000
  O1     O1        0.839239887885325    0.426083198041484    0.661791677316358  0.0000
  O3     O3        0.647586563981925    0.486970705441707    0.676053246413151  0.0000
  O3     O3        0.237294178353286    0.202106197710799    0.306952707178582  0.0000
  O1     O1        0.266885774653390    0.745015217503736    0.287335079213912  0.0000
  O3     O3        0.724761950941354    0.205591472150922    0.737109671996438  0.0000
  O1     O1        0.758598713890565    0.731649334010664    0.716474529092760  0.0000
  O3     O3        0.121933590265467    0.322908919616063    0.138112476502385  0.0000
  O1     O1        0.387865417484564    0.624100208435022    0.139306476984993  0.0000
  O1     O1        0.856668480623139    0.211608539976437    0.886869091328333  0.0000
  O1     O1        0.636338209274599    0.723930552566527    0.890827828523316  0.0000
  O1     O1        0.873930183163244    0.604427032247300    0.887215162202984  0.0000
  O3     O3        0.619023666399292    0.333121099959513    0.891500139744708  0.0000
  O1     O1        0.137400191634316    0.726167775786647    0.132389608375211  0.0000
  O3     O3        0.354206324180185    0.219832173769615    0.150609347045067  0.0000
  O1     O1        0.661589535655040    0.510604981401694    0.114521934573527  0.0000
  O1     O1        0.837215901627645    0.428776254772194    0.111296114401695  0.0000
  O1     O1        0.345810692732752    0.415814371432569    0.923701931331398  0.0000
  O3     O3        0.156531530263941    0.483616984750180    0.925274545394327  0.0000
  O1     O1        0.731129275629589    0.186680482906789    0.054972556178302  0.0000
  O1     O1        0.766479863783088    0.749579598012467    0.049975718548015  0.0000
  O3     O3        0.226886556870455    0.192637010989485    0.982326981194077  0.0000
  O1     O1        0.266833004156224    0.725030737649297    0.973655779698235  0.0000
