data_c00798.vasp
_audit_creation_method             Generated by GULP
_audit_author_name                 Salvador R. G. Balestra
_symmetry_space_group_name_H-M     'P 1             '
_symmetry_Int_Tables_number        1

loop_
_symmetry_equiv_pos_site_id
_symmetry_equiv_pos_as_xyz
_cell_length_a                       17.5959
_cell_length_b                        7.8210
_cell_length_c                       10.2262
_cell_angle_alpha                   89.7329
_cell_angle_beta                    89.9723
_cell_angle_gamma                   91.3568

loop_
_atom_site_label
_atom_site_type_symbol
_atom_site_fract_x
_atom_site_fract_y
_atom_site_fract_z
_atom_site_charge
  Ge     Ge        0.052090000000021    0.000000000000000    0.372269999999958  0.0000
  Ge     Ge        0.451597579047302    0.053669589369723    0.372968531244838  0.0000
  Ge     Ge        0.945030862625113    0.060534895566220    0.622619889223665  0.0000
  Ge     Ge        0.559844979022886    0.017300872102472    0.126328636570400  0.0000
  Ge     Ge        0.947568026941612    0.076368047975955    0.123226245035798  0.0000
  Ge     Ge        0.450181495789662    0.075378876842296    0.878608432251587  0.0000
  Ge     Ge        0.052426262082438    0.008431293705324    0.873056747756093  0.0000
  Ge     Ge        0.176829098852588    0.285915978099935    0.258897416142345  0.0000
  Ge     Ge        0.328868175792330    0.771183405333110    0.263626901656202  0.0000
  Ge     Ge        0.849691143698452    0.379802182869682    0.693265159660657  0.0000
  Ge     Ge        0.647573928430902    0.707967747041933    0.689827339815907  0.0000
  Ge     Ge        0.666425997277811    0.306183328060213    0.700414246055029  0.0000
  Ge     Ge        0.147557487045223    0.688985139959854    0.257812087349223  0.0000
  Ge     Ge        0.356879218791901    0.367326357773444    0.254123065755655  0.0000
  Ge     Ge        0.674142501810284    0.315685081338006    0.014975543184633  0.0000
  Ge     Ge        0.825816487932793    0.792057827154437    0.999514907520269  0.0000
  Ge     Ge        0.150622935056607    0.694296042713333    0.938672282852481  0.0000
  Ge     Ge        0.330849700615667    0.776891847926593    0.947837260682918  0.0000
  Ge     Ge        0.176258075936199    0.294669863917452    0.941068103471355  0.0000
  Ge     Ge        0.857147213119136    0.390989724735884    0.008013804779487  0.0000
  Si     Si        0.550762713088299    0.021472482777087    0.626743982812533  0.0000
  Si     Si        0.824618870713683    0.775194927725035    0.686649448968637  0.0000
  Si     Si        0.351963603066485    0.381189235564864    0.942386008091310  0.0000
  Si     Si        0.649848743188872    0.710613149904829    0.002462634970356  0.0000
  O1     O1        0.128772142080247    0.135436938038513    0.349783517757670  0.0000
  O1     O1        0.374788540007309    0.917099830004821    0.361553512483177  0.0000
  O1     O1        0.908011580464435    0.259345870372860    0.597591848926302  0.0000
  O3     O3        0.582185813690684    0.830869251438379    0.609628070131136  0.0000
  O3     O3        0.872930491967410    0.907784542165313    0.599183854639832  0.0000
  O3     O3        0.619352980415518    0.157896064480193    0.603069888719878  0.0000
  O1     O1        0.079096410536080    0.794747364403075    0.342600124182267  0.0000
  O1     O1        0.427133802593249    0.258031314894301    0.330111864653306  0.0000
  O1     O1        0.023373206384017    0.017444583123314    0.533030351054571  0.0000
  O3     O3        0.479161361249411    0.053649476835499    0.536423358299023  0.0000
  O1     O1        0.972951127895517    0.054340793244867    0.284228326416382  0.0000
  O1     O1        0.528786538972038    0.992947210898010    0.284444596495394  0.0000
  O1     O1        0.974475411470545    0.054188594668429    0.783996319092158  0.0000
  O3     O3        0.526229934306834    0.046929517112774    0.777584905367417  0.0000
  O1     O1        0.630323841158148    0.171980872211642    0.118485737123156  0.0000
  O1     O1        0.868298901660219    0.953358961475368    0.083852465477299  0.0000
  O3     O3        0.410827853107673    0.275974764690553    0.857108100706736  0.0000
  O1     O1        0.086259125975459    0.806679461299435    0.849352374242763  0.0000
  O1     O1        0.382688876060563    0.916401090218708    0.853136022896960  0.0000
  O1     O1        0.127654377584143    0.150304650282918    0.847510133818044  0.0000
  O3     O3        0.587067959452179    0.816236752847745    0.076801629221753  0.0000
  O1     O1        0.923698128316723    0.285788383580265    0.097378313972572  0.0000
  O1     O1        0.482052383530898    0.073823558351376    0.036825759400825  0.0000
  O1     O1        0.025118489114220    0.017286838287771    0.035475202148587  0.0000
  O1     O1        0.160369053000620    0.487360898417853    0.319202486741613  0.0000
  O1     O1        0.345497130634972    0.566846178833823    0.318736008275075  0.0000
  O3     O3        0.837530566319699    0.584058072365294    0.633170379681609  0.0000
  O1     O1        0.649305495700747    0.504659353698743    0.632194677943944  0.0000
  O1     O1        0.272774847505163    0.251260526012567    0.265207683932568  0.0000
  O1     O1        0.232729329823974    0.802383694563530    0.264445019579359  0.0000
  O1     O1        0.762414433526400    0.276548493918146    0.700818008456749  0.0000
  O3     O3        0.735443477279845    0.812229545073820    0.678909373641659  0.0000
  O1     O1        0.144940362830150    0.276025629375182    0.100103180109873  0.0000
  O1     O1        0.362103406189548    0.798510235586397    0.106139564295772  0.0000
  O1     O1        0.886746242286649    0.392850792360867    0.847652904743385  0.0000
  O3     O3        0.624645006415721    0.681989287583754    0.853073638225339  0.0000
  O3     O3        0.853006386860550    0.789725557051099    0.836419816685468  0.0000
  O1     O1        0.637269933691831    0.288971587940295    0.860888725458549  0.0000
  O1     O1        0.120187895887952    0.669615282778660    0.097762870635644  0.0000
  O3     O3        0.379796204362119    0.402925127430506    0.091503056915420  0.0000
  O3     O3        0.660770763633157    0.525316642960123    0.066742064554572  0.0000
  O1     O1        0.849862871750144    0.597066793632339    0.063046198060383  0.0000
  O3     O3        0.339990287085079    0.569759206075037    0.886715321694846  0.0000
  O1     O1        0.160159063649868    0.494490578798291    0.876566890531527  0.0000
  O1     O1        0.770077542393110    0.286326598370799    0.015320426967175  0.0000
  O3     O3        0.728798321397218    0.819549499009300    0.006409514823981  0.0000
  O3     O3        0.273491432940519    0.268670842836944    0.944524611553421  0.0000
  O1     O1        0.235140689837766    0.811318372667296    0.942619992941393  0.0000
