data_c00771.vasp
_audit_creation_method             Generated by GULP
_audit_author_name                 Salvador R. G. Balestra
_symmetry_space_group_name_H-M     'P 1             '
_symmetry_Int_Tables_number        1

loop_
_symmetry_equiv_pos_site_id
_symmetry_equiv_pos_as_xyz
_cell_length_a                       17.5658
_cell_length_b                        7.8413
_cell_length_c                       10.1782
_cell_angle_alpha                   90.5361
_cell_angle_beta                    91.0483
_cell_angle_gamma                   88.0491

loop_
_atom_site_label
_atom_site_type_symbol
_atom_site_fract_x
_atom_site_fract_y
_atom_site_fract_z
_atom_site_charge
  Ge     Ge        0.052090000000021    0.000000000000000    0.372269999999958  0.0000
  Ge     Ge        0.445850192760164    0.951334664582977    0.358358198750548  0.0000
  Ge     Ge        0.939024917962194    0.943895426826989    0.610579022105032  0.0000
  Ge     Ge        0.550706490291324    0.003626942203341    0.109930075796340  0.0000
  Ge     Ge        0.939216289941892    0.948828231798296    0.123743678690276  0.0000
  Ge     Ge        0.442465309454996    0.939641160037786    0.858270943144635  0.0000
  Ge     Ge        0.040246695183969    0.008183610898014    0.869309148833439  0.0000
  Ge     Ge        0.146174650053230    0.311414710168537    0.253561350491975  0.0000
  Ge     Ge        0.355148109704000    0.629452555066576    0.247648485957162  0.0000
  Ge     Ge        0.818066722195860    0.233675539785683    0.685971533425573  0.0000
  Ge     Ge        0.658669781916750    0.703714874566503    0.682127105354584  0.0000
  Ge     Ge        0.841231145812195    0.632724939608862    0.675128507463335  0.0000
  Ge     Ge        0.171904646700702    0.710230443338221    0.258255203283070  0.0000
  Ge     Ge        0.637603356371304    0.322240227891755    0.995377320154704  0.0000
  Ge     Ge        0.844643437010053    0.637871048726651    0.996326223936209  0.0000
  Ge     Ge        0.318779284468592    0.229818241664910    0.932058339014567  0.0000
  Ge     Ge        0.166115096461330    0.720132629543118    0.941040206862252  0.0000
  Ge     Ge        0.346691329024919    0.631489622979585    0.931447629093461  0.0000
  Ge     Ge        0.139803723949675    0.318038046331428    0.932594978686839  0.0000
  Ge     Ge        0.819005779720950    0.237001614114855    0.004429042617248  0.0000
  Si     Si        0.544971672971827    0.001006371024881    0.614375149693120  0.0000
  Si     Si        0.638268157729348    0.309665558411959    0.686888666251769  0.0000
  Si     Si        0.325440878504891    0.235972860663082    0.244786518189631  0.0000
  Si     Si        0.665640379343165    0.715760475662679    0.993873652313468  0.0000
  O1     O1        0.082136611651781    0.200895841011715    0.340855019074563  0.0000
  O1     O1        0.418681345509976    0.744279852469816    0.339603027553336  0.0000
  O1     O1        0.862958790120123    0.086478012700405    0.587997195279834  0.0000
  O3     O3        0.606053604465726    0.846989009026597    0.586607684367843  0.0000
  O1     O1        0.904550310986471    0.744142718192661    0.585453692470458  0.0000
  O2     O2        0.583516342459609    0.185593909687717    0.601719610032763  0.0000
  O1     O1        0.128147634630433    0.860840398866437    0.356114981471595  0.0000
  O3     O3        0.369213950102845    0.088798794194510    0.326207891854782  0.0000
  O1     O1        0.019872992107116    0.990656814066535    0.531634453692212  0.0000
  O3     O3        0.471614528027382    0.985961282355618    0.522231877073035  0.0000
  O1     O1        0.971727931992977    0.947879267618880    0.283968217895212  0.0000
  O1     O1        0.525237718361639    0.991875558066609    0.271222565570411  0.0000
  O1     O1        0.963088874854498    0.960720511993086    0.776455558811568  0.0000
  O3     O3        0.519397499871688    0.980761315540331    0.764600212014479  0.0000
  O1     O1        0.572927007780453    0.212213577110650    0.080118180062584  0.0000
  O1     O1        0.910199905277933    0.746830423049739    0.085148630292498  0.0000
  O1     O1        0.369130729672981    0.088747251308901    0.837560963793911  0.0000
  O1     O1        0.114900907465521    0.862596344870578    0.847305284831561  0.0000
  O1     O1        0.406652416210193    0.740851945022063    0.833955648344804  0.0000
  O1     O1        0.072883849982946    0.209896581097835    0.844141021182207  0.0000
  O3     O3        0.627090045542664    0.863748279149447    0.080856401083142  0.0000
  O1     O1        0.862890355873711    0.089014768954205    0.104052882092883  0.0000
  O1     O1        0.472208124822908    0.949355594623418    0.020130825174456  0.0000
  O1     O1        0.014781450080576    0.004719307655479    0.032484753112002  0.0000
  O1     O1        0.154475805585552    0.511486952491878    0.319232770921401  0.0000
  O3     O3        0.344411253278642    0.422578241756495    0.302954375605416  0.0000
  O1     O1        0.834546215204702    0.429080997636516    0.618279735877385  0.0000
  O3     O3        0.643670470984114    0.495964291199157    0.624971689374393  0.0000
  O3     O3        0.235300572121465    0.207728783512668    0.251025842062684  0.0000
  O1     O1        0.268026565965368    0.735243417419542    0.254736257112234  0.0000
  O3     O3        0.720608616200904    0.213685200940239    0.695112649602517  0.0000
  O1     O1        0.753365924592591    0.739053006241606    0.668491943504848  0.0000
  O1     O1        0.114039767948738    0.333586432410662    0.094934619838857  0.0000
  O1     O1        0.384670857928964    0.619524856022050    0.088604955442606  0.0000
  O1     O1        0.851449668762129    0.218442333099800    0.845839265945854  0.0000
  O3     O3        0.632552047808930    0.722616845768763    0.844964015068320  0.0000
  O1     O1        0.872389465551726    0.621131466633423    0.836062551173245  0.0000
  O3     O3        0.606693917261727    0.334198173885237    0.832961949007890  0.0000
  O1     O1        0.135171953612778    0.730654365496463    0.101010470437270  0.0000
  O3     O3        0.351811416534314    0.226397580255813    0.094142078791707  0.0000
  O3     O3        0.648455202965651    0.529572366714205    0.051749163187054  0.0000
  O1     O1        0.838031542287479    0.439118418703376    0.061067956611825  0.0000
  O1     O1        0.331117216919965    0.432562522691736    0.872051759145410  0.0000
  O1     O1        0.151620581805134    0.518247992623008    0.876044157362054  0.0000
  O1     O1        0.722795513782825    0.211336907136287    0.007036914346253  0.0000
  O3     O3        0.755725098640615    0.742222437759014    0.992962068210456  0.0000
  O1     O1        0.223521721735512    0.195344166058608    0.927353711513134  0.0000
  O1     O1        0.262085247647130    0.750231205808199    0.941498905238053  0.0000
