data_c00773.vasp
_audit_creation_method             Generated by GULP
_audit_author_name                 Salvador R. G. Balestra
_symmetry_space_group_name_H-M     'P 1             '
_symmetry_Int_Tables_number        1

loop_
_symmetry_equiv_pos_site_id
_symmetry_equiv_pos_as_xyz
_cell_length_a                       17.6110
_cell_length_b                        7.8460
_cell_length_c                       10.1145
_cell_angle_alpha                   89.5866
_cell_angle_beta                    90.8241
_cell_angle_gamma                   91.8080

loop_
_atom_site_label
_atom_site_type_symbol
_atom_site_fract_x
_atom_site_fract_y
_atom_site_fract_z
_atom_site_charge
  Ge     Ge        0.052090000000021    0.000000000000000    0.372269999999958  0.0000
  Ge     Ge        0.442928046900013    0.060594595811408    0.338573304830342  0.0000
  Ge     Ge        0.939330660575873    0.052138633790197    0.613591163272738  0.0000
  Ge     Ge        0.547768946913588    0.992779392169507    0.085506135828786  0.0000
  Ge     Ge        0.945421096364720    0.053103007134498    0.118118222223228  0.0000
  Ge     Ge        0.441141666551220    0.050654379788774    0.830732118484729  0.0000
  Ge     Ge        0.047385712363581    0.995002690283983    0.866036105779183  0.0000
  Ge     Ge        0.171012776850499    0.288904321911320    0.256059801348830  0.0000
  Ge     Ge        0.324726024895162    0.764460667076146    0.259730585405866  0.0000
  Ge     Ge        0.836909572330302    0.362967820167716    0.673770459079873  0.0000
  Ge     Ge        0.634359332469898    0.691244900594458    0.698274155906145  0.0000
  Ge     Ge        0.817784533298581    0.760861277406178    0.681745455993412  0.0000
  Ge     Ge        0.143432200026596    0.687574530381356    0.255419913167505  0.0000
  Ge     Ge        0.672427536825608    0.283824614759633    0.015536865137818  0.0000
  Ge     Ge        0.823650480910008    0.765266093637872    0.001330097555384  0.0000
  Ge     Ge        0.351475819483050    0.366644763646735    0.948547527637179  0.0000
  Ge     Ge        0.147816518236949    0.685089741299561    0.932670666382170  0.0000
  Ge     Ge        0.170355978740164    0.286054858116141    0.936498888675815  0.0000
  Ge     Ge        0.642540873755480    0.681550212147033    0.015381310802225  0.0000
  Ge     Ge        0.851113362480364    0.363563519460895    0.999209418367868  0.0000
  Si     Si        0.544716659193752    0.007374005930124    0.588368031197002  0.0000
  Si     Si        0.659621148087675    0.297508699972266    0.697699029779995  0.0000
  Si     Si        0.349215256829549    0.368650543041751    0.259014089353779  0.0000
  Si     Si        0.325424711462765    0.764984890040162    0.947172783011491  0.0000
  O1     O1        0.130420969469412    0.132132356612109    0.351454661147180  0.0000
  O1     O1        0.374708361437053    0.901635272493387    0.360562513459947  0.0000
  O1     O1        0.899361584307394    0.246532114602365    0.586602406484046  0.0000
  O3     O3        0.572402739287294    0.816032797374802    0.608037873705217  0.0000
  O1     O1        0.867311743598488    0.903929077019931    0.585161807012239  0.0000
  O2     O2        0.610189790840170    0.146123866840982    0.628901128767969  0.0000
  O1     O1        0.076391398857439    0.794850822461836    0.339662948762204  0.0000
  O3     O3        0.404347326969881    0.259883272114866    0.352787366426003  0.0000
  O1     O1        0.021416885727270    0.016236947336525    0.532543887158647  0.0000
  O3     O3        0.522963088888915    0.035704826288142    0.435109441843694  0.0000
  O1     O1        0.974121987521242    0.058392977876653    0.281032731500819  0.0000
  O1     O1        0.472125307752696    0.038716119497058    0.178018342509184  0.0000
  O1     O1        0.967487652549376    0.038421456325820    0.778397504006973  0.0000
  O3     O3        0.467392458165581    0.038010683413862    0.666508250009590  0.0000
  O1     O1        0.622567884536772    0.138448801857784    0.105954837704306  0.0000
  O1     O1        0.868310548528507    0.916541975300188    0.097599517989395  0.0000
  O1     O1        0.415214547783313    0.256976404334160    0.860071882101631  0.0000
  O1     O1        0.086469755064611    0.799737894000168    0.838192722725128  0.0000
  O3     O3        0.366383577749706    0.906343232554446    0.856555966965342  0.0000
  O1     O1        0.119507214120781    0.144492294618511    0.841449375682259  0.0000
  O1     O1        0.582814758027537    0.793568177432256    0.112351379023272  0.0000
  O1     O1        0.923133663261878    0.258296156922321    0.074435965620564  0.0000
  O1     O1        0.519534065168531    0.003311762458379    0.921679134606088  0.0000
  O1     O1        0.021549047966287    0.988722217270978    0.030269992999672  0.0000
  O1     O1        0.151671853272268    0.485233532952574    0.318983057905839  0.0000
  O3     O3        0.338813223327479    0.556231087471748    0.314315146794077  0.0000
  O1     O1        0.830455693992913    0.563859119587192    0.612060099181526  0.0000
  O3     O3        0.641147180200875    0.483645910181299    0.638305427744171  0.0000
  O3     O3        0.268265581289040    0.267053950021775    0.249105539761582  0.0000
  O1     O1        0.229665766673841    0.798160303835735    0.267067286231713  0.0000
  O3     O3        0.747826493547756    0.260287962313857    0.677020512265318  0.0000
  O1     O1        0.722233245833621    0.790958497490765    0.688370086642669  0.0000
  O1     O1        0.137424419577144    0.270794783158148    0.096312039187940  0.0000
  O3     O3        0.355859348819064    0.783918292534635    0.097834619306504  0.0000
  O1     O1        0.869252799831695    0.383213891229390    0.833816102246936  0.0000
  O1     O1        0.604223694675158    0.675102522861102    0.856980748109418  0.0000
  O1     O1        0.854430242001635    0.776717782550842    0.840511483326097  0.0000
  O3     O3        0.641159727862510    0.298004796408847    0.852291727213007  0.0000
  O1     O1        0.116890475918763    0.665651618676328    0.092869980757224  0.0000
  O3     O3        0.382697529642244    0.377963846159902    0.111590878936266  0.0000
  O1     O1        0.657398941046853    0.484295698782601    0.078714672581707  0.0000
  O1     O1        0.841993976521463    0.563969467292353    0.061909942949318  0.0000
  O3     O3        0.341464269765357    0.575162903047079    0.894894953955560  0.0000
  O1     O1        0.155851462450575    0.486321989949094    0.870735422677940  0.0000
  O1     O1        0.767306504543384    0.246346275666818    0.019864540145139  0.0000
  O1     O1        0.727823905407798    0.794065748937984    0.001101272159665  0.0000
  O1     O1        0.266162164265143    0.256301731874919    0.936054703743339  0.0000
  O3     O3        0.235608508129336    0.792612275875368    0.944106866005857  0.0000
