data_c00789.vasp
_audit_creation_method             Generated by GULP
_audit_author_name                 Salvador R. G. Balestra
_symmetry_space_group_name_H-M     'P 1             '
_symmetry_Int_Tables_number        1

loop_
_symmetry_equiv_pos_site_id
_symmetry_equiv_pos_as_xyz
_cell_length_a                       17.5213
_cell_length_b                        7.8380
_cell_length_c                       10.2669
_cell_angle_alpha                   89.8702
_cell_angle_beta                    90.2657
_cell_angle_gamma                   91.8292

loop_
_atom_site_label
_atom_site_type_symbol
_atom_site_fract_x
_atom_site_fract_y
_atom_site_fract_z
_atom_site_charge
  Ge     Ge        0.052090000000021    0.000000000000000    0.372269999999958  0.0000
  Ge     Ge        0.452869864458152    0.053404366588732    0.408029680503466  0.0000
  Ge     Ge        0.948147857990637    0.065884844058126    0.622391504535943  0.0000
  Ge     Ge        0.558617129668326    0.014924104910158    0.157331459448318  0.0000
  Ge     Ge        0.952608947611615    0.078860213356782    0.114377586512503  0.0000
  Ge     Ge        0.451615908725048    0.070390806350066    0.905263331231834  0.0000
  Ge     Ge        0.058864136092103    0.012135946132291    0.866062808495468  0.0000
  Ge     Ge        0.177582102487271    0.284123152665672    0.294654049798313  0.0000
  Ge     Ge        0.330099038908100    0.768860217100743    0.296750497828916  0.0000
  Ge     Ge        0.854956523598280    0.381322986464760    0.737644971145100  0.0000
  Ge     Ge        0.651569801486675    0.705650788005622    0.726713818812677  0.0000
  Ge     Ge        0.670479640588415    0.304996847828850    0.734707570912529  0.0000
  Ge     Ge        0.147515329027888    0.686369499828300    0.299325518178458  0.0000
  Ge     Ge        0.358990089820225    0.366480543301060    0.290448890620957  0.0000
  Ge     Ge        0.673595728819589    0.314693390784509    0.048239120526301  0.0000
  Ge     Ge        0.826516706839934    0.791276814138307    0.044111300588056  0.0000
  Ge     Ge        0.353194104802210    0.380118546198426    0.973885205931664  0.0000
  Ge     Ge        0.146665345702543    0.693090280905398    0.986576278650691  0.0000
  Ge     Ge        0.329354559256938    0.778990937652067    0.982315416849483  0.0000
  Ge     Ge        0.856830638846256    0.393632530308947    0.051577713480161  0.0000
  Si     Si        0.554992049164849    0.015028105904928    0.659405925229140  0.0000
  Si     Si        0.829788381243322    0.776308259175625    0.733742410995244  0.0000
  Si     Si        0.175151394318990    0.296903920118475    0.985745687054144  0.0000
  Si     Si        0.649565048079438    0.709116916044612    0.037473740725996  0.0000
  O1     O1        0.128082031046384    0.143130096775006    0.390921288651120  0.0000
  O1     O1        0.375355716385501    0.916747342241346    0.394484022902471  0.0000
  O1     O1        0.916952325672930    0.268453409934560    0.645216608676998  0.0000
  O3     O3        0.588409391463017    0.827656290101724    0.640725364528155  0.0000
  O3     O3        0.875324794803856    0.917777812196034    0.651035419139281  0.0000
  O3     O3        0.622497426279452    0.156063556242597    0.637974145752204  0.0000
  O1     O1        0.084939179259227    0.797973101458010    0.392852644920979  0.0000
  O1     O1        0.427456015409980    0.257912236357404    0.372892866616569  0.0000
  O1     O1        0.973965035522207    0.044904453743014    0.461409196850105  0.0000
  O3     O3        0.482747774943258    0.046268771957414    0.569739134785429  0.0000
  O1     O1        0.026102806240718    0.022635892550909    0.209856755696436  0.0000
  O1     O1        0.528199899741973    0.993726116426560    0.315030318846320  0.0000
  O1     O1        0.030767800969960    0.027010754293227    0.705927721212610  0.0000
  O3     O3        0.528549497279061    0.030099159236440    0.809654420684766  0.0000
  O1     O1        0.629574652881964    0.170611885388630    0.150035265235452  0.0000
  O1     O1        0.872829375147511    0.943695978315755    0.131894434829626  0.0000
  O1     O1        0.413324358857889    0.267199680922413    0.879251824356297  0.0000
  O1     O1        0.084829382102942    0.805019833272606    0.892574528821358  0.0000
  O1     O1        0.377824006463245    0.922848332038595    0.886859075494197  0.0000
  O3     O3        0.134168076881532    0.155066890023204    0.896175281736620  0.0000
  O3     O3        0.586192247609175    0.813653233778459    0.110149967206943  0.0000
  O1     O1        0.920906620510241    0.281009928595378    0.141511654471317  0.0000
  O1     O1        0.482052965626550    0.071083268261515    0.064868803924001  0.0000
  O1     O1        0.980308256508077    0.061928552790537    0.954100014946960  0.0000
  O1     O1        0.160857412405934    0.485382181273462    0.355241636579200  0.0000
  O1     O1        0.346020638225183    0.565810634573026    0.353547905093433  0.0000
  O3     O3        0.844305445853909    0.587387353059966    0.678878148984660  0.0000
  O1     O1        0.653652703766202    0.503377479957727    0.667976519369587  0.0000
  O1     O1        0.273383337079957    0.250549547172404    0.298565828910741  0.0000
  O1     O1        0.233686360705278    0.798906126594022    0.295035912180810  0.0000
  O1     O1        0.766878215498985    0.277496337847967    0.734904039513431  0.0000
  O3     O3        0.739981174680786    0.810071742605236    0.723926292088326  0.0000
  O3     O3        0.144949412273151    0.279774159044237    0.133686930297601  0.0000
  O1     O1        0.363609908529927    0.791237673604638    0.139885093364483  0.0000
  O1     O1        0.889176009338779    0.394702375312996    0.892995293429169  0.0000
  O3     O3        0.625145309759611    0.680815693070279    0.887905400913760  0.0000
  O3     O3        0.857028190126149    0.787179507448924    0.883402923939975  0.0000
  O1     O1        0.638467947071829    0.288147816831705    0.892725563655443  0.0000
  O1     O1        0.112530736633381    0.680406279097882    0.142141411777359  0.0000
  O1     O1        0.386278150881414    0.393384263402227    0.131689868127210  0.0000
  O3     O3        0.659826444399877    0.523478931494848    0.100314657625779  0.0000
  O1     O1        0.847660608655795    0.594948803527166    0.109283190787914  0.0000
  O1     O1        0.343949372580396    0.580568627146129    0.915371268542797  0.0000
  O3     O3        0.158382935024479    0.486226911654788    0.931620035399065  0.0000
  O1     O1        0.769683968590878    0.285327556781255    0.048300736016503  0.0000
  O3     O3        0.729172823663958    0.818694437437735    0.045382222770483  0.0000
  O3     O3        0.265408201325801    0.270515008875020    0.985284565802432  0.0000
  O1     O1        0.232811630905790    0.804379847923879    0.985524996552133  0.0000
