data_c00788.vasp
_audit_creation_method             Generated by GULP
_audit_author_name                 Salvador R. G. Balestra
_symmetry_space_group_name_H-M     'P 1             '
_symmetry_Int_Tables_number        1

loop_
_symmetry_equiv_pos_site_id
_symmetry_equiv_pos_as_xyz
_cell_length_a                       17.7987
_cell_length_b                        7.9005
_cell_length_c                       10.2902
_cell_angle_alpha                   89.1702
_cell_angle_beta                    90.0982
_cell_angle_gamma                   89.7354

loop_
_atom_site_label
_atom_site_type_symbol
_atom_site_fract_x
_atom_site_fract_y
_atom_site_fract_z
_atom_site_charge
  Ge     Ge        0.052090000000021    0.000000000000000    0.372269999999958  0.0000
  Ge     Ge        0.450020579067912    0.964555432155051    0.378371952447917  0.0000
  Ge     Ge        0.949267553631598    0.991701399712925    0.629937835274204  0.0000
  Ge     Ge        0.558158362646590    0.972161162368372    0.128202590649918  0.0000
  Ge     Ge        0.946150641500303    0.986975535855061    0.123716169123570  0.0000
  Ge     Ge        0.452477369206980    0.972179831761375    0.872747723244227  0.0000
  Ge     Ge        0.058396285849408    0.004416050048005    0.882429817499334  0.0000
  Ge     Ge        0.151793981648542    0.310455601770902    0.258292734843363  0.0000
  Ge     Ge        0.352276935756175    0.656212682893984    0.263033615593502  0.0000
  Ge     Ge        0.844792879129960    0.302291603761721    0.692595423401216  0.0000
  Ge     Ge        0.657189215698220    0.682250538564941    0.698181554272122  0.0000
  Ge     Ge        0.662453474391391    0.280076136714621    0.691087017799330  0.0000
  Ge     Ge        0.172387121759031    0.715085627960591    0.258595766658095  0.0000
  Ge     Ge        0.330475900780481    0.249665184183192    0.263970720014606  0.0000
  Ge     Ge        0.671152518929322    0.260433396054162    0.004982728391277  0.0000
  Ge     Ge        0.836079048399138    0.690598259623101    0.005132300443700  0.0000
  Ge     Ge        0.333374935053684    0.253683699123409    0.948241480545239  0.0000
  Ge     Ge        0.173689884524085    0.708325352244919    0.943417241965918  0.0000
  Ge     Ge        0.354444887891751    0.655472731925881    0.945598136073099  0.0000
  Ge     Ge        0.655682422180565    0.663126852319565    0.015402001563549  0.0000
  Si     Si        0.554696680098611    0.988496464166844    0.623845919960325  0.0000
  Si     Si        0.836141619110658    0.700876143069783    0.697855087764616  0.0000
  Si     Si        0.156803631048583    0.313504512742802    0.948396274601009  0.0000
  Si     Si        0.848183123191833    0.290748333625995    0.997628652694626  0.0000
  O1     O1        0.084723528576573    0.201118973717653    0.341430009524974  0.0000
  O1     O1        0.416514605232585    0.764784301330841    0.353288355278038  0.0000
  O1     O1        0.902369692105685    0.180109457482613    0.600665893326971  0.0000
  O3     O3        0.603411578576009    0.818783716974683    0.604483756665142  0.0000
  O3     O3        0.885507603941504    0.827382460115178    0.611156184214542  0.0000
  O3     O3        0.607712932382470    0.149139499853246    0.596661101760996  0.0000
  O1     O1        0.122296763762051    0.854922599243913    0.349098497848141  0.0000
  O1     O1        0.378719392069845    0.108284157843928    0.359585735017079  0.0000
  O1     O1        0.025833366374211    0.976914935148599    0.532837325117767  0.0000
  O3     O3        0.480371772480759    0.984536812138606    0.538030279494040  0.0000
  O1     O1        0.971284605793302    0.973114840721704    0.284443432910225  0.0000
  O1     O1        0.526997740683903    0.002402034704588    0.283366468302269  0.0000
  O1     O1        0.980574435940034    0.989545899823684    0.788232229618394  0.0000
  O3     O3        0.528803737311176    0.000654157408602    0.774026836023342  0.0000
  O1     O1        0.630844823738660    0.109681228994095    0.100035575465019  0.0000
  O1     O1        0.891036843180659    0.813093830073019    0.099158412249363  0.0000
  O1     O1        0.379259842326401    0.114158052549013    0.851675919219959  0.0000
  O1     O1        0.122245431773720    0.845601124341719    0.849395931112756  0.0000
  O1     O1        0.417192032863069    0.772262323789747    0.856490545614315  0.0000
  O3     O3        0.101405791392921    0.200649190435833    0.863525764694292  0.0000
  O1     O1        0.592414429078906    0.770655355371561    0.107433523416476  0.0000
  O3     O3        0.900552451108733    0.176047607789229    0.089246075880811  0.0000
  O1     O1        0.482836239238264    0.009102678927712    0.028417980472056  0.0000
  O1     O1        0.029159997195072    0.979779475282229    0.040747080073110  0.0000
  O1     O1        0.159955356082099    0.511130526953031    0.316593209674500  0.0000
  O1     O1        0.342499151402004    0.452892299312163    0.319410846214480  0.0000
  O3     O3        0.842857786286024    0.511982573541873    0.642199987986353  0.0000
  O1     O1        0.652643052787093    0.484386485658025    0.633943150627938  0.0000
  O1     O1        0.236309577677051    0.205203857036432    0.270001577498097  0.0000
  O1     O1        0.266799643137424    0.758950033883933    0.265238767155527  0.0000
  O1     O1        0.755392464095125    0.223768811413310    0.683307571299695  0.0000
  O3     O3        0.748943174892464    0.754639869813490    0.699330668172246  0.0000
  O3     O3        0.126736707802604    0.327181177932828    0.095370510729910  0.0000
  O1     O1        0.383675047389243    0.652723485031266    0.105156565715916  0.0000
  O3     O3        0.879185541891416    0.293572748384465    0.850908750522319  0.0000
  O1     O1        0.626107511194711    0.674266014932570    0.855568847324883  0.0000
  O3     O3        0.866067625520949    0.706852190963860    0.845709308893041  0.0000
  O1     O1        0.634336453266338    0.268702695675934    0.850689879944927  0.0000
  O1     O1        0.142480597500585    0.726046132421160    0.100315462780686  0.0000
  O1     O1        0.363029453861588    0.239399104160443    0.107288134561774  0.0000
  O1     O1        0.658698575903152    0.457432155047973    0.069876479896659  0.0000
  O3     O3        0.843430625209645    0.479317011910388    0.052957193966345  0.0000
  O1     O1        0.350392243821966    0.454457347919111    0.888539674106110  0.0000
  O3     O3        0.164340654386945    0.501310466891203    0.888993359316278  0.0000
  O3     O3        0.765385512394318    0.210977045228180    0.991644677651802  0.0000
  O1     O1        0.744146155592581    0.749434416969322    0.021145058697882  0.0000
  O3     O3        0.237528836181316    0.219587250607791    0.951905951793814  0.0000
  O1     O1        0.267667700214209    0.752772756359349    0.939222618278492  0.0000
