data_c00729.vasp
_audit_creation_method             Generated by GULP
_audit_author_name                 Salvador R. G. Balestra
_symmetry_space_group_name_H-M     'P 1             '
_symmetry_Int_Tables_number        1

loop_
_symmetry_equiv_pos_site_id
_symmetry_equiv_pos_as_xyz
_cell_length_a                       17.5740
_cell_length_b                        7.8551
_cell_length_c                       10.2138
_cell_angle_alpha                   90.4805
_cell_angle_beta                    90.3489
_cell_angle_gamma                   91.7154

loop_
_atom_site_label
_atom_site_type_symbol
_atom_site_fract_x
_atom_site_fract_y
_atom_site_fract_z
_atom_site_charge
  Ge     Ge        0.052090000000021    0.000000000000000    0.372269999999958  0.0000
  Ge     Ge        0.445590461211606    0.058415509358160    0.367647419076248  0.0000
  Ge     Ge        0.945358949258482    0.044368711500305    0.620462499082907  0.0000
  Ge     Ge        0.550492005151214    0.995400166810305    0.116385959745857  0.0000
  Ge     Ge        0.936209708212728    0.045607930444249    0.133828786513733  0.0000
  Ge     Ge        0.443667738122023    0.047587569643724    0.863180297986568  0.0000
  Ge     Ge        0.044036596422909    0.992610951777914    0.883794293107437  0.0000
  Ge     Ge        0.168809082315598    0.299306995879810    0.258941184213734  0.0000
  Ge     Ge        0.323598555114897    0.768605405010129    0.250995530265778  0.0000
  Ge     Ge        0.845480559778103    0.354698677801368    0.687942955602385  0.0000
  Ge     Ge        0.638603513169846    0.683866491812445    0.688661995613410  0.0000
  Ge     Ge        0.821612887506479    0.758007063924390    0.694225685636235  0.0000
  Ge     Ge        0.663996058775090    0.282118868589396    0.688856794518351  0.0000
  Ge     Ge        0.351069513283418    0.368562780150709    0.257333675527144  0.0000
  Ge     Ge        0.819114409481389    0.756705102084127    0.010164324554304  0.0000
  Ge     Ge        0.342925296847480    0.355708795567386    0.937788381283856  0.0000
  Ge     Ge        0.141846441141006    0.678101898939158    0.941609240793480  0.0000
  Ge     Ge        0.322541413679440    0.756226604704968    0.933266727782654  0.0000
  Ge     Ge        0.636247773232013    0.672123736388986    0.002104751575320  0.0000
  Ge     Ge        0.845110842750019    0.356934384381705    0.007252631513608  0.0000
  Si     Si        0.546157242331709    0.994547598436477    0.616432520130210  0.0000
  Si     Si        0.144974157567203    0.694526728086934    0.251253659672355  0.0000
  Si     Si        0.665975729711122    0.281322286684427    0.000599818623843  0.0000
  Si     Si        0.164770211584856    0.282456440503363    0.949768646106108  0.0000
  O1     O1        0.119361890077058    0.159901912176763    0.355154593700965  0.0000
  O1     O1        0.366978970214791    0.928663785675265    0.339302467508022  0.0000
  O1     O1        0.909302410926355    0.243034932045753    0.597491718886216  0.0000
  O3     O3        0.578199088583087    0.807094117917374    0.595549142701414  0.0000
  O1     O1        0.871898507037519    0.896628232765775    0.597940297174258  0.0000
  O3     O3        0.612980310320037    0.136001401813914    0.593822851017598  0.0000
  O3     O3        0.086221481078471    0.801502654752762    0.335670493718251  0.0000
  O1     O1        0.418535270900511    0.263675816787512    0.344648159406570  0.0000
  O1     O1        0.024931677838969    0.000867794580165    0.534501286661172  0.0000
  O3     O3        0.472764716406358    0.029057526953998    0.529696643344991  0.0000
  O1     O1        0.968213499412490    0.039965497171182    0.292889519553357  0.0000
  O1     O1        0.523636602365990    0.011002609443062    0.276901446364395  0.0000
  O1     O1        0.970148459875980    0.036603875303420    0.785115405027147  0.0000
  O3     O3        0.521984670035618    0.015116368418219    0.768644639655529  0.0000
  O3     O3        0.626549394854746    0.133644563535594    0.084798507881668  0.0000
  O1     O1        0.859500582429269    0.908868950539327    0.110622186050286  0.0000
  O1     O1        0.402085414921460    0.240574403644077    0.842030972600387  0.0000
  O1     O1        0.078039754421561    0.791359483732067    0.854431807930430  0.0000
  O1     O1        0.373666316823534    0.893308690380519    0.837597043513068  0.0000
  O3     O3        0.118067592039139    0.143477942870359    0.865364554695850  0.0000
  O1     O1        0.574548204725752    0.786461880826560    0.093394770017522  0.0000
  O1     O1        0.908093645976355    0.248181851614596    0.099047944315040  0.0000
  O1     O1        0.472992967595687    0.044449183890698    0.024329701749063  0.0000
  O1     O1        0.013285628624482    0.990915835749156    0.042996379642258  0.0000
  O3     O3        0.155406720941588    0.507960536462207    0.310864826522659  0.0000
  O1     O1        0.343837231320886    0.573186641037192    0.314760453347580  0.0000
  O1     O1        0.834134270295613    0.555680314655335    0.631803665931773  0.0000
  O1     O1        0.647978961181479    0.482528666737388    0.627377735568643  0.0000
  O1     O1        0.263825933215302    0.263306132631370    0.268931662920466  0.0000
  O3     O3        0.226131103586608    0.795881876645778    0.249871362336455  0.0000
  O1     O1        0.758792799002625    0.243884970338544    0.681878802686186  0.0000
  O1     O1        0.725525629716895    0.790688974362297    0.694747946279321  0.0000
  O3     O3        0.135776966151939    0.274600258075877    0.099567735555508  0.0000
  O1     O1        0.355200883965865    0.774809478185582    0.092498967993744  0.0000
  O1     O1        0.875611528272993    0.369000835919608    0.848467967064871  0.0000
  O1     O1        0.602843587363945    0.664707267102355    0.844010483990462  0.0000
  O1     O1        0.854437842816227    0.773485553339209    0.853694924413921  0.0000
  O3     O3        0.635393167558428    0.277822070662622    0.851414424955713  0.0000
  O3     O3        0.113833985288811    0.673404552730930    0.104107203017262  0.0000
  O1     O1        0.376963793748511    0.374346812536434    0.095487705417613  0.0000
  O3     O3        0.647142781302393    0.467083107619993    0.060023165199386  0.0000
  O1     O1        0.838136675026171    0.557990556683463    0.069934959959938  0.0000
  O1     O1        0.334770186469806    0.552913360409767    0.873896318863395  0.0000
  O3     O3        0.150638886266811    0.470020238481860    0.890562838759044  0.0000
  O3     O3        0.755997596833435    0.254736224831519    0.002215701788239  0.0000
  O1     O1        0.722787932169149    0.778420580211239    0.003019221066385  0.0000
  O3     O3        0.254437014841058    0.250297191147566    0.948567804575030  0.0000
  O1     O1        0.226986279873220    0.789398241474095    0.930935216270188  0.0000
