data_c00734.vasp
_audit_creation_method             Generated by GULP
_audit_author_name                 Salvador R. G. Balestra
_symmetry_space_group_name_H-M     'P 1             '
_symmetry_Int_Tables_number        1

loop_
_symmetry_equiv_pos_site_id
_symmetry_equiv_pos_as_xyz
_cell_length_a                       17.6053
_cell_length_b                        7.8015
_cell_length_c                       10.1845
_cell_angle_alpha                   89.4011
_cell_angle_beta                    90.4719
_cell_angle_gamma                   90.8225

loop_
_atom_site_label
_atom_site_type_symbol
_atom_site_fract_x
_atom_site_fract_y
_atom_site_fract_z
_atom_site_charge
  Ge     Ge        0.052090000000021    0.000000000000000    0.372269999999958  0.0000
  Ge     Ge        0.439029745242079    0.049823454177687    0.380615619441643  0.0000
  Ge     Ge        0.941983820525193    0.045169056961618    0.617680001927623  0.0000
  Ge     Ge        0.551624771615693    0.991504707689219    0.137599732963580  0.0000
  Ge     Ge        0.938721380049249    0.044422296106535    0.128649814480605  0.0000
  Ge     Ge        0.448482806697232    0.061285986955643    0.878167135463413  0.0000
  Ge     Ge        0.043798829311866    0.994420085791536    0.877523925383609  0.0000
  Ge     Ge        0.168985191121943    0.294301615060553    0.264730140753045  0.0000
  Ge     Ge        0.321955276629044    0.759369390943320    0.267658039798814  0.0000
  Ge     Ge        0.842446242709403    0.357156878106719    0.689851222804581  0.0000
  Ge     Ge        0.637709409521144    0.688099650829113    0.699833671603942  0.0000
  Ge     Ge        0.818966115219671    0.763881270471294    0.696853799183333  0.0000
  Ge     Ge        0.662435574304240    0.282157636496433    0.697707449177546  0.0000
  Ge     Ge        0.670699930544028    0.273664982680954    0.016922165610971  0.0000
  Ge     Ge        0.821998176908120    0.752321772402998    0.013026179950610  0.0000
  Ge     Ge        0.346260722145848    0.367316354502429    0.948945450085241  0.0000
  Ge     Ge        0.146992843667503    0.685451994948451    0.943119034241461  0.0000
  Ge     Ge        0.323773977143763    0.776497129872259    0.950814730610860  0.0000
  Ge     Ge        0.168857490274896    0.278672689721686    0.948367845448709  0.0000
  Ge     Ge        0.640665420372391    0.675647717881874    0.018055174975318  0.0000
  Si     Si        0.544489533472539    0.002590358011834    0.625699881772615  0.0000
  Si     Si        0.144514640341196    0.687859603778376    0.257445948245060  0.0000
  Si     Si        0.347132967561512    0.363234271596464    0.261867713485077  0.0000
  Si     Si        0.846964221016849    0.353024786653847    0.002449107115010  0.0000
  O1     O1        0.124476417953003    0.148134569348861    0.364347664569322  0.0000
  O1     O1        0.366513007550408    0.902429414822051    0.368532528577805  0.0000
  O1     O1        0.906792327815993    0.248646451170316    0.598310785932784  0.0000
  O3     O3        0.575086759085042    0.811489617248887    0.606926002477486  0.0000
  O1     O1        0.868115083554786    0.901306648321880    0.596098340466827  0.0000
  O3     O3        0.611427302124646    0.141283209965942    0.599653736552844  0.0000
  O3     O3        0.081397106192416    0.797388629823341    0.329951112333967  0.0000
  O3     O3        0.408015044824704    0.253753003170172    0.343566924720000  0.0000
  O1     O1        0.021538805615644    0.997925765953238    0.533074787855683  0.0000
  O3     O3        0.469383193231838    0.043654838025475    0.543814937786728  0.0000
  O1     O1        0.970986566593371    0.055511334607937    0.288225069180509  0.0000
  O1     O1        0.518768135677914    0.000413206810901    0.295323143736315  0.0000
  O1     O1        0.967082619932184    0.032799936844656    0.782580759155035  0.0000
  O3     O3        0.524202698540484    0.020715879986070    0.780307765343159  0.0000
  O1     O1        0.631307393044881    0.118677144762555    0.114575934220955  0.0000
  O1     O1        0.868579894584922    0.890284010655393    0.116176094456374  0.0000
  O1     O1        0.412341562710532    0.263782220471923    0.858736359084176  0.0000
  O1     O1        0.080075516537235    0.792395758474150    0.854883291140456  0.0000
  O1     O1        0.376648769196113    0.912156381498207    0.855865042427161  0.0000
  O1     O1        0.116011570966740    0.143266207344836    0.853780181684452  0.0000
  O1     O1        0.575309747701743    0.782902059625409    0.107223808971335  0.0000
  O3     O3        0.909100992464700    0.247850163889838    0.083255129924329  0.0000
  O1     O1        0.478453207632562    0.056655721847205    0.039152993162028  0.0000
  O1     O1        0.016886531548439    0.994565283922785    0.039821177777450  0.0000
  O3     O3        0.151996850484765    0.499419963301170    0.321759011217591  0.0000
  O3     O3        0.338962942469304    0.551649756205039    0.322045784426058  0.0000
  O1     O1        0.830445440515277    0.560938452072175    0.634153148943726  0.0000
  O1     O1        0.647462865978788    0.487456460105526    0.637651219117306  0.0000
  O3     O3        0.266215528726389    0.263654131006589    0.265252119745056  0.0000
  O3     O3        0.224750553507645    0.790177704344377    0.266999282293177  0.0000
  O1     O1        0.757739088957113    0.243416603561569    0.687549802131172  0.0000
  O1     O1        0.723232615811253    0.798865413150757    0.701643955160789  0.0000
  O1     O1        0.136597849917473    0.262543035244603    0.107836163519873  0.0000
  O1     O1        0.354943465956219    0.793688425243860    0.111651929563872  0.0000
  O3     O3        0.872634728610733    0.375721222352912    0.852227989270923  0.0000
  O1     O1        0.607890637105040    0.662624268854377    0.858657293092016  0.0000
  O1     O1        0.853785502012524    0.781100391917690    0.855423413200492  0.0000
  O1     O1        0.635003938018695    0.266385838835706    0.859279499509434  0.0000
  O3     O3        0.121901277558274    0.657195022506266    0.106908418705015  0.0000
  O3     O3        0.373968607144334    0.386673890080265    0.112675132791160  0.0000
  O1     O1        0.651896871274190    0.472395615999694    0.079509560017255  0.0000
  O3     O3        0.835988722630823    0.540245914437899    0.062675212825792  0.0000
  O1     O1        0.333511289810894    0.570229005588560    0.892766631052103  0.0000
  O1     O1        0.159703410983384    0.484732561221813    0.885648106448624  0.0000
  O3     O3        0.767854963619485    0.245906283303370    0.007239245655029  0.0000
  O1     O1        0.726199060798506    0.785698040326741    0.017795055436217  0.0000
  O1     O1        0.264654450445861    0.242156647420872    0.946085020580639  0.0000
  O1     O1        0.228195663092364    0.812430471830882    0.942839942624889  0.0000
