data_c00783.vasp
_audit_creation_method             Generated by GULP
_audit_author_name                 Salvador R. G. Balestra
_symmetry_space_group_name_H-M     'P 1             '
_symmetry_Int_Tables_number        1

loop_
_symmetry_equiv_pos_site_id
_symmetry_equiv_pos_as_xyz
_cell_length_a                       17.6651
_cell_length_b                        7.8199
_cell_length_c                       10.1306
_cell_angle_alpha                   91.5943
_cell_angle_beta                    90.5350
_cell_angle_gamma                   91.2431

loop_
_atom_site_label
_atom_site_type_symbol
_atom_site_fract_x
_atom_site_fract_y
_atom_site_fract_z
_atom_site_charge
  Ge     Ge        0.052090000000021    0.000000000000000    0.372269999999958  0.0000
  Ge     Ge        0.443518241940034    0.057404612071399    0.347418396191093  0.0000
  Ge     Ge        0.940217455315765    0.028882249446312    0.616773290916067  0.0000
  Ge     Ge        0.544320684903155    0.990705722778226    0.087561577300030  0.0000
  Ge     Ge        0.941112497175828    0.045333408961098    0.126782959332614  0.0000
  Ge     Ge        0.438589209902629    0.033781704344718    0.829844744177291  0.0000
  Ge     Ge        0.044071357889096    0.971775753151754    0.873853262056371  0.0000
  Ge     Ge        0.167465168532278    0.294237079024443    0.266271785042737  0.0000
  Ge     Ge        0.322296085912085    0.771460171094148    0.259668810259588  0.0000
  Ge     Ge        0.838267155808556    0.343788858314491    0.681452297261384  0.0000
  Ge     Ge        0.634995134575484    0.677817148608076    0.700611959831821  0.0000
  Ge     Ge        0.817684707311961    0.744823790546469    0.687997454757769  0.0000
  Ge     Ge        0.347671137177687    0.367101114831728    0.269141452703647  0.0000
  Ge     Ge        0.669368183499772    0.275348268445907    0.015365788702383  0.0000
  Ge     Ge        0.820054441999827    0.757005174038497    0.007232777935376  0.0000
  Ge     Ge        0.144113364813920    0.661341576944050    0.932716284055067  0.0000
  Ge     Ge        0.322612549801954    0.741979697835890    0.939994835367490  0.0000
  Ge     Ge        0.167498635205406    0.261325682458026    0.948747330081610  0.0000
  Ge     Ge        0.640061372330271    0.675421346460142    0.017188560438801  0.0000
  Ge     Ge        0.847740169548924    0.352151257522847    0.005389588949545  0.0000
  Si     Si        0.546445805726800    0.992821725220680    0.589971560105293  0.0000
  Si     Si        0.660773014830230    0.281985893766789    0.699311073298906  0.0000
  Si     Si        0.146264077582498    0.689830617436728    0.249402643238515  0.0000
  Si     Si        0.344444090534039    0.340576665187932    0.956089106257952  0.0000
  O1     O1        0.119355096100541    0.160032535987826    0.368144820114655  0.0000
  O1     O1        0.367475343522796    0.917935443079386    0.361993518925823  0.0000
  O1     O1        0.900469716492776    0.224202277009149    0.591876900270101  0.0000
  O3     O3        0.572154915083920    0.800529131906150    0.612698342013701  0.0000
  O1     O1        0.867477010234214    0.881904364135306    0.591550710963019  0.0000
  O2     O2        0.613850149792579    0.129427513291086    0.623806519653251  0.0000
  O3     O3        0.084042849460298    0.800726161862998    0.324083513931642  0.0000
  O1     O1        0.411844651714811    0.262010421753728    0.363888964584408  0.0000
  O1     O1        0.021092867960273    0.988045733803094    0.532943480934049  0.0000
  O3     O3        0.523034044281737    0.010873085160872    0.437060721240158  0.0000
  O1     O1        0.970833074645666    0.048162799325589    0.288599909684918  0.0000
  O1     O1        0.469593762493738    0.033947954341810    0.183793231472000  0.0000
  O1     O1        0.967988716346628    0.021749264277780    0.781514997669555  0.0000
  O3     O3        0.470136958741563    0.038112963723973    0.668026520116114  0.0000
  O1     O1        0.618809948947929    0.136372441549005    0.106522113469890  0.0000
  O1     O1        0.864128083202003    0.909878433876935    0.105439795866884  0.0000
  O3     O3        0.402310748910066    0.232700487466209    0.868940710089814  0.0000
  O1     O1        0.076520035349943    0.766935095941127    0.847982932793559  0.0000
  O1     O1        0.371789365934275    0.871906435256214    0.837542567730889  0.0000
  O1     O1        0.121058771868467    0.108974820754715    0.854845512908846  0.0000
  O1     O1        0.579182971654424    0.790555515291841    0.113061741767328  0.0000
  O1     O1        0.917683678588427    0.250257034417229    0.086853216197514  0.0000
  O1     O1        0.516035783308581    0.997181132576747    0.924359023954794  0.0000
  O1     O1        0.017047801648232    0.979752687601712    0.036835659383532  0.0000
  O3     O3        0.156684997932910    0.507522336760450    0.316398074946486  0.0000
  O1     O1        0.340754498347407    0.573799433360507    0.321997597830486  0.0000
  O1     O1        0.831218445230043    0.542857253787960    0.620825887294331  0.0000
  O3     O3        0.643018037725996    0.467030421648816    0.640506793507962  0.0000
  O1     O1        0.262484132250920    0.257390189540856    0.275490958944529  0.0000
  O3     O3        0.225215658631860    0.798551817388784    0.254644698062585  0.0000
  O3     O3        0.749203068450523    0.243758293217485    0.684856408103874  0.0000
  O1     O1        0.722143011900769    0.777244800330646    0.691458879702829  0.0000
  O1     O1        0.134453261994207    0.253991860933379    0.108400069359167  0.0000
  O1     O1        0.353606143732788    0.782822990771117    0.099338332291202  0.0000
  O1     O1        0.870330070700248    0.363736636634775    0.841690305118112  0.0000
  O1     O1        0.603517214754470    0.665356932644409    0.858035690957032  0.0000
  O1     O1        0.852508039751374    0.764764259366058    0.847564267142116  0.0000
  O3     O3        0.638368337360985    0.283088777604967    0.852352658097021  0.0000
  O3     O3        0.122052073474715    0.647748268039154    0.099304578516906  0.0000
  O3     O3        0.375853841697193    0.366699337806771    0.104811081697196  0.0000
  O1     O1        0.654778546185032    0.479586009408988    0.079193511561835  0.0000
  O1     O1        0.836580605843412    0.556190277327870    0.066618737059984  0.0000
  O3     O3        0.332814158105729    0.526333722812608    0.896774318320739  0.0000
  O1     O1        0.150280917147515    0.454814758182458    0.877701012144597  0.0000
  O1     O1        0.763919877854913    0.235848119308794    0.019759952145012  0.0000
  O1     O1        0.724613622738838    0.788202745846912    0.004508440674152  0.0000
  O3     O3        0.264542568519630    0.235898173954777    0.958421984341828  0.0000
  O1     O1        0.227790945745504    0.776766409961145    0.924343003993667  0.0000
