data_c00722.vasp
_audit_creation_method             Generated by GULP
_audit_author_name                 Salvador R. G. Balestra
_symmetry_space_group_name_H-M     'P 1             '
_symmetry_Int_Tables_number        1

loop_
_symmetry_equiv_pos_site_id
_symmetry_equiv_pos_as_xyz
_cell_length_a                       17.5034
_cell_length_b                        7.9202
_cell_length_c                       10.3404
_cell_angle_alpha                   92.1892
_cell_angle_beta                    90.4555
_cell_angle_gamma                   90.7931

loop_
_atom_site_label
_atom_site_type_symbol
_atom_site_fract_x
_atom_site_fract_y
_atom_site_fract_z
_atom_site_charge
  Ge     Ge        0.052090000000021    0.000000000000000    0.372269999999958  0.0000
  Ge     Ge        0.447622792009765    0.044810180729874    0.380316899023659  0.0000
  Ge     Ge        0.946379297507978    0.025512461621454    0.623832109073681  0.0000
  Ge     Ge        0.560442303394701    0.024898312835303    0.137105867128787  0.0000
  Ge     Ge        0.937008457059479    0.042467702100156    0.134230736302670  0.0000
  Ge     Ge        0.450264486517131    0.026643377622652    0.882163790021589  0.0000
  Ge     Ge        0.045081484839726    0.978959592204194    0.885082591877531  0.0000
  Ge     Ge        0.167820004513164    0.295964701747575    0.266748191412039  0.0000
  Ge     Ge        0.327179596159162    0.754613182097146    0.264886289782027  0.0000
  Ge     Ge        0.841497458583121    0.330916981645703    0.708286708645570  0.0000
  Ge     Ge        0.648344707827862    0.710968913901511    0.707197190049440  0.0000
  Ge     Ge        0.831175288929072    0.738985838777176    0.703504063236025  0.0000
  Ge     Ge        0.657143101756148    0.301068664482977    0.715338724462634  0.0000
  Ge     Ge        0.352385270061083    0.356121433020293    0.271493512983571  0.0000
  Ge     Ge        0.658041031078607    0.337757527197436    0.029991216446605  0.0000
  Ge     Ge        0.350437692644922    0.341720418353411    0.956639525565044  0.0000
  Ge     Ge        0.146886172675359    0.669520534037922    0.947302895951245  0.0000
  Ge     Ge        0.327740261236475    0.742474815406323    0.949968698641131  0.0000
  Ge     Ge        0.168156744205235    0.268940306076153    0.954953579112782  0.0000
  Ge     Ge        0.847347947996476    0.360865372513637    0.023242095247709  0.0000
  Si     Si        0.548778062158518    0.003946573138629    0.628861748293023  0.0000
  Si     Si        0.148016405946975    0.688293417665249    0.256670018854922  0.0000
  Si     Si        0.836816018004159    0.745509017855753    0.003230689703774  0.0000
  Si     Si        0.654695333463653    0.722421661320733    0.006662183852044  0.0000
  O1     O1        0.117188184158428    0.161418313870217    0.360416885741280  0.0000
  O1     O1        0.369968742931933    0.913740199911556    0.355180737744250  0.0000
  O1     O1        0.899024080382147    0.212437404808877    0.608320675361624  0.0000
  O3     O3        0.591103521916540    0.826524332103727    0.606202670360850  0.0000
  O1     O1        0.883086367533199    0.858716234662109    0.601551704319845  0.0000
  O3     O3        0.605721802668111    0.163019539283783    0.613231943122365  0.0000
  O3     O3        0.087776869015141    0.802673494659108    0.333798091343498  0.0000
  O1     O1        0.418707228760189    0.247258405806767    0.357136393055203  0.0000
  O1     O1        0.025930075718355    0.003125710855443    0.532905015609310  0.0000
  O3     O3        0.474868000756012    0.021254905874123    0.540469771627880  0.0000
  O1     O1        0.967116424054622    0.027926028030467    0.291417944313062  0.0000
  O1     O1        0.526166454418453    0.994195256205598    0.289325104010346  0.0000
  O1     O1        0.972232075606168    0.023315296020870    0.785674390752438  0.0000
  O3     O3        0.525374349450273    0.004970712834911    0.779720160426193  0.0000
  O1     O1        0.606096889426739    0.216949587253198    0.131388998838334  0.0000
  O3     O3        0.860822960194449    0.904792546085541    0.093597049468249  0.0000
  O1     O1        0.412553541920630    0.223812873626741    0.866249814104139  0.0000
  O1     O1        0.080119777779960    0.777253498924558    0.863803574820202  0.0000
  O1     O1        0.379530440469589    0.875365043303804    0.857571410557951  0.0000
  O1     O1        0.119495325053252    0.120752685194577    0.863466911140319  0.0000
  O3     O3        0.629676840200961    0.876033137770065    0.098591416144764  0.0000
  O1     O1        0.904917181056692    0.243972035725898    0.117747055522638  0.0000
  O1     O1        0.481982314224596    0.007135492859058    0.038774601275854  0.0000
  O1     O1        0.015534304879323    0.997139225571141    0.043834502357595  0.0000
  O3     O3        0.155894646373421    0.506116893160300    0.318706580985250  0.0000
  O1     O1        0.346117765120620    0.562024041628085    0.328354668188756  0.0000
  O1     O1        0.836146065385921    0.530809676885160    0.653169630206617  0.0000
  O1     O1        0.647614793466852    0.502156820340786    0.659497585331003  0.0000
  O1     O1        0.263965346630088    0.258336459080777    0.276848135924999  0.0000
  O3     O3        0.229447402468136    0.785836654211888    0.261051026869087  0.0000
  O1     O1        0.750923402568401    0.244154563448659    0.711766007116591  0.0000
  O1     O1        0.737792376614727    0.799241218761242    0.697560463359744  0.0000
  O1     O1        0.134854594783422    0.264422898542050    0.111591864549454  0.0000
  O1     O1        0.358694289741593    0.759407871763992    0.108513959979734  0.0000
  O1     O1        0.874867258231764    0.333545329486982    0.865393094664393  0.0000
  O3     O3        0.615008093679321    0.726204103833471    0.866225772905162  0.0000
  O3     O3        0.870523557190957    0.763344773910156    0.859961773190774  0.0000
  O1     O1        0.627514132409805    0.295136226653679    0.873470842515216  0.0000
  O3     O3        0.121405996293560    0.657703186802981    0.108880912658642  0.0000
  O1     O1        0.382773994332780    0.360021957797671    0.114173008880621  0.0000
  O3     O3        0.636751116754552    0.546542255013783    0.072094159622251  0.0000
  O3     O3        0.862878023046593    0.573695260187315    0.066574305148347  0.0000
  O1     O1        0.339644297134588    0.535957621447822    0.894516489208041  0.0000
  O1     O1        0.155125805516485    0.465719740896919    0.891104356619940  0.0000
  O1     O1        0.753777815877624    0.300999646684590    0.043785540732004  0.0000
  O2     O2        0.745624033058136    0.723673385850002    0.975454113909472  0.0000
  O1     O1        0.264275310713693    0.233720700359680    0.960690428517767  0.0000
  O1     O1        0.231865547125925    0.781017683500052    0.940690256117884  0.0000
