data_c00725.vasp
_audit_creation_method             Generated by GULP
_audit_author_name                 Salvador R. G. Balestra
_symmetry_space_group_name_H-M     'P 1             '
_symmetry_Int_Tables_number        1

loop_
_symmetry_equiv_pos_site_id
_symmetry_equiv_pos_as_xyz
_cell_length_a                       17.6582
_cell_length_b                        7.8376
_cell_length_c                       10.3003
_cell_angle_alpha                   92.2880
_cell_angle_beta                    89.6630
_cell_angle_gamma                   89.6839

loop_
_atom_site_label
_atom_site_type_symbol
_atom_site_fract_x
_atom_site_fract_y
_atom_site_fract_z
_atom_site_charge
  Ge     Ge        0.052090000000021    0.000000000000000    0.372269999999958  0.0000
  Ge     Ge        0.447304750038851    0.045217290333110    0.392515857501746  0.0000
  Ge     Ge        0.956891285671729    0.956723359075980    0.634485272101748  0.0000
  Ge     Ge        0.556406919234981    0.027375876372243    0.137301874672869  0.0000
  Ge     Ge        0.935542830336347    0.999587635228452    0.143196243933804  0.0000
  Ge     Ge        0.453096095788330    0.997294272588851    0.885226187358269  0.0000
  Ge     Ge        0.053807389264937    0.977584272376317    0.908537182075956  0.0000
  Ge     Ge        0.166776361292549    0.301735926971911    0.284699718873220  0.0000
  Ge     Ge        0.326139072936764    0.764395818535673    0.268776287768293  0.0000
  Ge     Ge        0.833299635727128    0.247694175791108    0.710813638236500  0.0000
  Ge     Ge        0.668823794598075    0.720730032094759    0.701936638569124  0.0000
  Ge     Ge        0.848932793141993    0.657198582157004    0.703536900369298  0.0000
  Ge     Ge        0.652164050157865    0.313750134806564    0.704880550768993  0.0000
  Ge     Ge        0.349910726886729    0.349897825516909    0.289001937512662  0.0000
  Ge     Ge        0.642407380091066    0.346497755801084    0.019712492970870  0.0000
  Ge     Ge        0.356083658185423    0.319782865914102    0.975913616045260  0.0000
  Ge     Ge        0.328959939962278    0.730950738778231    0.957895343093865  0.0000
  Ge     Ge        0.173816745657601    0.267479960228732    0.963235298418108  0.0000
  Ge     Ge        0.673298477754567    0.745960625654236    0.018624977147198  0.0000
  Ge     Ge        0.824979283409374    0.280937829830670    0.023207684203085  0.0000
  Si     Si        0.553866190548820    0.001181103194227    0.631072214434093  0.0000
  Si     Si        0.156450642711050    0.689498502641985    0.264053604015304  0.0000
  Si     Si        0.850834240442036    0.678449569067143    0.012601159935821  0.0000
  Si     Si        0.158958186186959    0.654660632100795    0.957290142271694  0.0000
  O1     O1        0.111153341732199    0.171252774582149    0.373643624229796  0.0000
  O1     O1        0.371196320586080    0.915852685823491    0.361976631501864  0.0000
  O1     O1        0.888831977278204    0.113057626571184    0.616436591175552  0.0000
  O3     O3        0.616011516323185    0.851898971093568    0.604821045023241  0.0000
  O1     O1        0.914030770107133    0.761545716978393    0.613837182826541  0.0000
  O3     O3        0.592088841333934    0.184561688019118    0.612584557157824  0.0000
  O3     O3        0.090598267322429    0.826082481418537    0.284104159972500  0.0000
  O1     O1        0.413941640179051    0.251190475447298    0.386600020344410  0.0000
  O1     O1        0.033269045531364    0.965627270130672    0.532864816264383  0.0000
  O3     O3        0.479526613306829    0.990622145903213    0.544191466801174  0.0000
  O1     O1        0.965056650141106    0.020116461222250    0.301577704096786  0.0000
  O1     O1        0.524212071082618    0.011059736145364    0.292649204089464  0.0000
  O1     O1        0.986301814604604    0.978470984913634    0.793003769273311  0.0000
  O3     O3        0.528334185417453    0.978122814591555    0.779767926925396  0.0000
  O1     O1        0.576047012752936    0.236785125036624    0.104452497434227  0.0000
  O3     O3        0.909402576285949    0.793390978016771    0.095581118574977  0.0000
  O1     O1        0.420487692433763    0.204129304828127    0.884837845215165  0.0000
  O3     O3        0.089855649896169    0.772352927737520    0.922479526856231  0.0000
  O1     O1        0.379755939775577    0.857272351919606    0.857606913529226  0.0000
  O1     O1        0.127616418933138    0.110979529551087    0.876434936690016  0.0000
  O1     O1        0.637868523777374    0.908719961383492    0.114849609288811  0.0000
  O1     O1        0.864703929458739    0.146690954174431    0.130085775986108  0.0000
  O1     O1        0.488640830428910    0.946441424835807    0.034382425655592  0.0000
  O1     O1        0.013505848106932    0.050885072868006    0.052096574530031  0.0000
  O3     O3        0.130301042196876    0.507541304117124    0.312024566779033  0.0000
  O1     O1        0.365835987749697    0.565494176793752    0.284575368895749  0.0000
  O1     O1        0.841110984135845    0.449723559457607    0.651474588665271  0.0000
  O1     O1        0.659577550689180    0.512213546219244    0.643081154806296  0.0000
  O1     O1        0.258588396585515    0.309828076371776    0.337547258752035  0.0000
  O3     O3        0.233404940494997    0.757503555597483    0.329243535321585  0.0000
  O1     O1        0.737634232280830    0.207089127132219    0.708472654637655  0.0000
  O1     O1        0.763972628426461    0.764829356732335    0.694718248124931  0.0000
  O1     O1        0.164150434280097    0.228819694984087    0.126056921435876  0.0000
  O1     O1        0.328782528566321    0.826920259442448    0.111146955968514  0.0000
  O1     O1        0.861737018839270    0.240092733606309    0.870418308164780  0.0000
  O1     O1        0.640786736538995    0.742223670226197    0.861743500224333  0.0000
  O3     O3        0.878793725289435    0.656359777123916    0.864471857170540  0.0000
  O1     O1        0.616402068147380    0.344540870657031    0.859363410103636  0.0000
  O2     O2        0.181694450913756    0.653009251285830    0.111864420631341  0.0000
  O1     O1        0.363815067462733    0.261534382549126    0.134800796528849  0.0000
  O1     O1        0.649741584939821    0.552165318913765    0.080838829743598  0.0000
  O3     O3        0.841682458018610    0.493115404907558    0.071525060416089  0.0000
  O1     O1        0.371302968741045    0.533888362811334    0.965434872989321  0.0000
  O3     O3        0.135767948304871    0.462335354688629    0.920136384231285  0.0000
  O1     O1        0.729600830163479    0.247981797379640    0.023375969973179  0.0000
  O3     O3        0.770170933364328    0.774661008485202    0.013658253116982  0.0000
  O1     O1        0.267107678881505    0.268746463547861    0.921003051544774  0.0000
  O3     O3        0.238066063833180    0.710285698535008    0.893723726329614  0.0000
