data_c00711.vasp
_audit_creation_method             Generated by GULP
_audit_author_name                 Salvador R. G. Balestra
_symmetry_space_group_name_H-M     'P 1             '
_symmetry_Int_Tables_number        1

loop_
_symmetry_equiv_pos_site_id
_symmetry_equiv_pos_as_xyz
_cell_length_a                       17.5686
_cell_length_b                        7.8214
_cell_length_c                       10.2295
_cell_angle_alpha                   90.2976
_cell_angle_beta                    89.7001
_cell_angle_gamma                   88.5924

loop_
_atom_site_label
_atom_site_type_symbol
_atom_site_fract_x
_atom_site_fract_y
_atom_site_fract_z
_atom_site_charge
  Ge     Ge        0.052090000000021    0.000000000000000    0.372269999999958  0.0000
  Ge     Ge        0.443148913627254    0.948943419167881    0.348275344433683  0.0000
  Ge     Ge        0.948902403276251    0.947692587332098    0.626135313735042  0.0000
  Ge     Ge        0.545376572169464    0.013456972507838    0.089789727923044  0.0000
  Ge     Ge        0.943000009135297    0.948220339027797    0.130144707546054  0.0000
  Ge     Ge        0.441781129378958    0.953015988849253    0.834418677895612  0.0000
  Ge     Ge        0.052146743788248    0.013223584372459    0.883169015863201  0.0000
  Ge     Ge        0.142390121044060    0.317354897098985    0.251270354220134  0.0000
  Ge     Ge        0.346302091359779    0.636941497672145    0.266595306345859  0.0000
  Ge     Ge        0.822163220121134    0.230603781121663    0.695166705086710  0.0000
  Ge     Ge        0.665917976897409    0.710071979851714    0.696745661161652  0.0000
  Ge     Ge        0.848029387233498    0.632620031521955    0.689384957506482  0.0000
  Ge     Ge        0.639727142417406    0.307164254713276    0.703747436038374  0.0000
  Ge     Ge        0.323108683371998    0.232383181554771    0.261842331827221  0.0000
  Ge     Ge        0.642569603773526    0.325286818391430    0.021207379509927  0.0000
  Ge     Ge        0.850197349106932    0.637181693718915    0.008138770110836  0.0000
  Ge     Ge        0.326197384246931    0.247897023197333    0.946853969802600  0.0000
  Ge     Ge        0.172844615706368    0.716407008544508    0.949930333499278  0.0000
  Ge     Ge        0.670350130535609    0.726280221380232    0.014327852849946  0.0000
  Ge     Ge        0.821850312458927    0.233468021010690    0.012653758312060  0.0000
  Si     Si        0.548345511370611    0.995113779735473    0.591115804001919  0.0000
  Si     Si        0.169397287337583    0.714525589745188    0.258813611061325  0.0000
  Si     Si        0.350930404502335    0.644645621459956    0.955184014543406  0.0000
  Si     Si        0.147474465366018    0.324397653954349    0.942879150666888  0.0000
  O1     O1        0.076543348592681    0.206435568462650    0.337127197058499  0.0000
  O1     O1        0.408027264281546    0.747281848557221    0.361893190620309  0.0000
  O1     O1        0.873351354379788    0.088042023893731    0.601100680991131  0.0000
  O3     O3        0.618983582059877    0.864248657767481    0.605444024755980  0.0000
  O1     O1        0.914525816656385    0.745772904935628    0.604954844541141  0.0000
  O3     O3        0.571854525798429    0.186830462005713    0.626104377188831  0.0000
  O3     O3        0.126269798290595    0.854794699056689    0.347277460437859  0.0000
  O1     O1        0.369105679119354    0.094450524537604    0.365277570538292  0.0000
  O1     O1        0.027568457198298    0.988939074806744    0.535029069630293  0.0000
  O3     O3        0.521577396222277    0.989768331077572    0.440674767947694  0.0000
  O1     O1        0.970933811786273    0.948336639117961    0.290865222958292  0.0000
  O1     O1        0.470947123404068    0.967732812464314    0.186722563580635  0.0000
  O1     O1        0.976274380032959    0.973905004102230    0.787577839563755  0.0000
  O3     O3        0.474982226221408    0.939195407638054    0.674653632814778  0.0000
  O1     O1        0.578692145170702    0.216569251458276    0.113682863341936  0.0000
  O1     O1        0.918747011618776    0.743112203170606    0.091000456801242  0.0000
  O1     O1        0.368651458744019    0.102916614884844    0.843424940613349  0.0000
  O1     O1        0.123969172167071    0.860688192579108    0.858546755953550  0.0000
  O3     O3        0.412155081350861    0.750412895872921    0.875744679489259  0.0000
  O3     O3        0.090959511235659    0.213381394902148    0.856528674143313  0.0000
  O1     O1        0.620562884200132    0.870042080446730    0.108365228883991  0.0000
  O1     O1        0.866838479724690    0.086381630788462    0.109584967772538  0.0000
  O1     O1        0.516467835310457    0.009436177310142    0.928500248873248  0.0000
  O1     O1        0.021106898096292    0.009797116872859    0.042566909953735  0.0000
  O3     O3        0.153635085705287    0.523461624381763    0.310293701963599  0.0000
  O1     O1        0.338853405452019    0.435146024861858    0.322113203947032  0.0000
  O1     O1        0.836054665720345    0.431159656425127    0.630225729314338  0.0000
  O1     O1        0.648874510079049    0.507869774686010    0.637435695641601  0.0000
  O1     O1        0.226943937016176    0.203914517567547    0.261699618319120  0.0000
  O3     O3        0.259160559467057    0.746251239566977    0.264545260521500  0.0000
  O1     O1        0.725855086816754    0.197728956778422    0.695781697810173  0.0000
  O1     O1        0.761919979463556    0.743713537182399    0.688977449367266  0.0000
  O3     O3        0.114868746518771    0.337644759293511    0.090457404016995  0.0000
  O3     O3        0.376937341755780    0.627217577153966    0.104997977893572  0.0000
  O1     O1        0.854297453949035    0.217834588977078    0.854035273597832  0.0000
  O1     O1        0.636555613037700    0.731226540816987    0.856286995841057  0.0000
  O1     O1        0.877983288591990    0.613017142119073    0.848334362870026  0.0000
  O1     O1        0.612068367603278    0.343543286532903    0.861711466330290  0.0000
  O3     O3        0.140578775452529    0.733119924627530    0.110085656120921  0.0000
  O1     O1        0.357633899413855    0.214128767295642    0.103494795517983  0.0000
  O1     O1        0.657302999971937    0.525186577436958    0.079944874771054  0.0000
  O1     O1        0.836811446984563    0.437828390566748    0.070946607763961  0.0000
  O3     O3        0.344377977918869    0.454879309956346    0.896469619974301  0.0000
  O3     O3        0.156161777342012    0.513365745347268    0.887293804762454  0.0000
  O1     O1        0.725755776726781    0.203251137231565    0.013994606142622  0.0000
  O1     O1        0.766443758161744    0.758141822104925    0.012463967621525  0.0000
  O3     O3        0.228816431216169    0.224470212184014    0.949156138782867  0.0000
  O3     O3        0.269760822186015    0.746144901019298    0.947134800000608  0.0000
