data_c00767.vasp
_audit_creation_method             Generated by GULP
_audit_author_name                 Salvador R. G. Balestra
_symmetry_space_group_name_H-M     'P 1             '
_symmetry_Int_Tables_number        1

loop_
_symmetry_equiv_pos_site_id
_symmetry_equiv_pos_as_xyz
_cell_length_a                       17.2603
_cell_length_b                        7.9148
_cell_length_c                       10.4224
_cell_angle_alpha                   88.9536
_cell_angle_beta                    91.2972
_cell_angle_gamma                   92.3790

loop_
_atom_site_label
_atom_site_type_symbol
_atom_site_fract_x
_atom_site_fract_y
_atom_site_fract_z
_atom_site_charge
  Ge     Ge        0.052090000000021    0.000000000000000    0.372269999999958  0.0000
  Ge     Ge        0.469443414943054    0.051786575613682    0.364596109632982  0.0000
  Ge     Ge        0.946698997881977    0.017991489462395    0.624068729551616  0.0000
  Ge     Ge        0.540202234259987    0.955163431198642    0.085114165365822  0.0000
  Ge     Ge        0.946549029240328    0.973511555353106    0.110718429923716  0.0000
  Ge     Ge        0.423872280148192    0.036125466028363    0.843740062066890  0.0000
  Ge     Ge        0.062830239924937    0.989148577966331    0.870233872887263  0.0000
  Ge     Ge        0.172471644172762    0.301016460407907    0.296057328748932  0.0000
  Ge     Ge        0.347384686912026    0.757732755082055    0.286170007403115  0.0000
  Ge     Ge        0.840143796273449    0.310080652716801    0.724405051466303  0.0000
  Ge     Ge        0.638810387658533    0.677070196428668    0.728978229324630  0.0000
  Ge     Ge        0.825526869269361    0.720187897564970    0.742579389981512  0.0000
  Ge     Ge        0.156191450919378    0.707276816314464    0.296310175692827  0.0000
  Ge     Ge        0.357628405643082    0.347335378138744    0.283083594545401  0.0000
  Ge     Ge        0.826922175035699    0.675865305767414    0.049620120141231  0.0000
  Ge     Ge        0.349529912341591    0.359332716737822    0.969229934418678  0.0000
  Ge     Ge        0.341902310215243    0.754250568996694    0.985204866321860  0.0000
  Ge     Ge        0.165037701579214    0.317186365825076    0.980769327663478  0.0000
  Ge     Ge        0.639654642997469    0.638628929232206    0.045757766307882  0.0000
  Ge     Ge        0.833219357982002    0.267896764336747    0.027522437374712  0.0000
  Si     Si        0.549317341844530    0.999520408261894    0.632445480928875  0.0000
  Si     Si        0.663423043042228    0.301627626902273    0.718206527681112  0.0000
  Si     Si        0.657521104355108    0.264499593284248    0.014780990110878  0.0000
  Si     Si        0.156468566098132    0.700026993450837    0.002175959798987  0.0000
  O1     O1        0.119836961536441    0.164096389246003    0.390820910878523  0.0000
  O1     O1        0.403725868217577    0.885837583572604    0.384684751402593  0.0000
  O1     O1        0.907148710680304    0.212659088648166    0.636597770497177  0.0000
  O3     O3        0.575457556238316    0.809477932240775    0.650068393984043  0.0000
  O1     O1        0.877257191387913    0.861989206391574    0.650847549165076  0.0000
  O2     O2        0.611305455332131    0.129984257661607    0.701592528753494  0.0000
  O1     O1        0.100916686566487    0.815837348948524    0.396327248256869  0.0000
  O1     O1        0.422790961416676    0.237370005524037    0.372701752024048  0.0000
  O1     O1        0.973940357964262    0.007799245992075    0.466158871524097  0.0000
  O3     O3        0.540882710645254    0.045916586613380    0.484210599909131  0.0000
  O1     O1        0.022641605802721    0.007519501274738    0.213528911315084  0.0000
  O1     O1        0.515874002040532    0.052876370357637    0.220898951971208  0.0000
  O1     O1        0.029945005606612    0.987776812350422    0.713385243422243  0.0000
  O3     O3        0.466000532619289    0.020055929191793    0.697735866242200  0.0000
  O3     O3        0.604168865302449    0.098850016264818    0.006461509212829  0.0000
  O1     O1        0.887892907722803    0.797561037373391    0.145037583905339  0.0000
  O1     O1        0.409277671222453    0.240079261804939    0.876830976752401  0.0000
  O3     O3        0.132032378165602    0.835976531316387    0.894874341231760  0.0000
  O1     O1        0.341979825560590    0.902321958238181    0.863578757315100  0.0000
  O1     O1        0.102871796428466    0.186718068845451    0.895408847038247  0.0000
  O1     O1        0.580947767026349    0.767471175797147    0.127360384572103  0.0000
  O1     O1        0.891883412931743    0.149113319885575    0.121265007709779  0.0000
  O1     O1        0.471515909687056    0.922116073227786    0.966643339946012  0.0000
  O1     O1        0.982569068367535    0.945384814388782    0.959467174448707  0.0000
  O1     O1        0.135074719414536    0.496794921799636    0.311586781694483  0.0000
  O1     O1        0.381723547170305    0.558111494703557    0.288174184666075  0.0000
  O1     O1        0.862779849027114    0.521792082458318    0.733612446687529  0.0000
  O3     O3        0.618406256233095    0.468077670364525    0.678638535768094  0.0000
  O1     O1        0.267603027257790    0.310589178680230    0.347162712159789  0.0000
  O1     O1        0.252729404075389    0.758315327498005    0.329183391626472  0.0000
  O3     O3        0.746244625010920    0.286043527724829    0.655257065994434  0.0000
  O1     O1        0.731762161036262    0.718255436002107    0.683179656534666  0.0000
  O1     O1        0.171935690911093    0.245620177024463    0.136903983449199  0.0000
  O1     O1        0.366775722874146    0.836690291691093    0.133992684237775  0.0000
  O1     O1        0.844511518581797    0.208237330104508    0.871415900516101  0.0000
  O1     O1        0.626910794131881    0.706687171618299    0.888968101031664  0.0000
  O1     O1        0.823917012923771    0.775028586385373    0.900615081563311  0.0000
  O2     O2        0.685974255136304    0.333720987526171    0.871228447630735  0.0000
  O3     O3        0.131180343639285    0.767900575375968    0.138841525098157  0.0000
  O1     O1        0.356199715194595    0.285524767080508    0.125008247976647  0.0000
  O3     O3        0.614279258995650    0.424330280923982    0.069005373703800  0.0000
  O1     O1        0.861114342617258    0.477353368687158    0.039861171762490  0.0000
  O1     O1        0.383826387814085    0.565029368463644    0.953008391727886  0.0000
  O3     O3        0.121471590783236    0.512786690055565    0.973664516217303  0.0000
  O3     O3        0.739191157744141    0.232562404568249    0.084752970430818  0.0000
  O1     O1        0.733258026072872    0.663548930581372    0.102204411574336  0.0000
  O1     O1        0.255510910791037    0.322616434465948    0.914570390480431  0.0000
  O3     O3        0.248381797825889    0.668629753815512    0.016661445460316  0.0000
