data_c00740.vasp
_audit_creation_method             Generated by GULP
_audit_author_name                 Salvador R. G. Balestra
_symmetry_space_group_name_H-M     'P 1             '
_symmetry_Int_Tables_number        1

loop_
_symmetry_equiv_pos_site_id
_symmetry_equiv_pos_as_xyz
_cell_length_a                       17.5141
_cell_length_b                        7.8266
_cell_length_c                       10.2149
_cell_angle_alpha                   90.5710
_cell_angle_beta                    90.4967
_cell_angle_gamma                   88.0269

loop_
_atom_site_label
_atom_site_type_symbol
_atom_site_fract_x
_atom_site_fract_y
_atom_site_fract_z
_atom_site_charge
  Ge     Ge        0.052090000000021    0.000000000000000    0.372269999999958  0.0000
  Ge     Ge        0.439968286827820    0.962143029579936    0.379461551520603  0.0000
  Ge     Ge        0.942813591875846    0.950481036532801    0.618186034541263  0.0000
  Ge     Ge        0.551832612784864    0.021507872482823    0.136247155659762  0.0000
  Ge     Ge        0.938608274111675    0.956258462986263    0.128001654101782  0.0000
  Ge     Ge        0.448859959431902    0.946596923606855    0.877483869742208  0.0000
  Ge     Ge        0.043595819866047    0.011442052660817    0.877249287777084  0.0000
  Ge     Ge        0.142263851184614    0.320729637126387    0.258478210391543  0.0000
  Ge     Ge        0.350164565582311    0.640017922680684    0.263344330749686  0.0000
  Ge     Ge        0.820520646640174    0.239598966780874    0.697931800413007  0.0000
  Ge     Ge        0.661076310017369    0.727335970901945    0.697997011162693  0.0000
  Ge     Ge        0.842304731099377    0.644802784179439    0.691792591178333  0.0000
  Ge     Ge        0.638105064073824    0.322997137729110    0.701086512347906  0.0000
  Ge     Ge        0.639095586908368    0.336497874803814    0.017788685491740  0.0000
  Ge     Ge        0.322827720632850    0.235090049835432    0.952375638846825  0.0000
  Ge     Ge        0.170354183805304    0.723454852633400    0.950207464902181  0.0000
  Ge     Ge        0.350913984641452    0.639295124048174    0.947591146016379  0.0000
  Ge     Ge        0.142465804716932    0.320824925061477    0.942513665060772  0.0000
  Ge     Ge        0.670200231188114    0.735219302983357    0.015891596173540  0.0000
  Ge     Ge        0.822248537692896    0.252897978831081    0.013007212981912  0.0000
  Si     Si        0.543868101890561    0.014247519798140    0.625514117916579  0.0000
  Si     Si        0.168676728289820    0.712039730179661    0.260020284170422  0.0000
  Si     Si        0.323748072933460    0.247479916452829    0.262077537081036  0.0000
  Si     Si        0.848261553161659    0.648952248542125    0.002646553298953  0.0000
  O1     O1        0.081330372912310    0.204625804537708    0.348987463498347  0.0000
  O1     O1        0.409850517464277    0.757393291323648    0.359014111743578  0.0000
  O1     O1        0.869891728607135    0.101385230599629    0.596518311301513  0.0000
  O3     O3        0.609798477799398    0.869153935655802    0.599114601447220  0.0000
  O1     O1        0.906299354551468    0.750742982189516    0.599578989013505  0.0000
  O3     O3        0.576015916558163    0.201888828675787    0.607694900898147  0.0000
  O3     O3        0.128679012029190    0.860385021093177    0.346292711947707  0.0000
  O3     O3        0.363633638111786    0.101142672508961    0.349468909847290  0.0000
  O1     O1        0.023553377910581    0.984374385492900    0.532915009089879  0.0000
  O3     O3        0.468064182827833    0.984639727380198    0.542375352873563  0.0000
  O1     O1        0.970618364682209    0.950600498412023    0.287668540232460  0.0000
  O1     O1        0.520195162164006    0.005683203996618    0.293877043649066  0.0000
  O1     O1        0.967574264995565    0.966702825737243    0.782419428992567  0.0000
  O3     O3        0.523450325083642    0.993943009657662    0.779220012135510  0.0000
  O1     O1        0.574126746641566    0.229664256868046    0.106865272756579  0.0000
  O3     O3        0.909736687631811    0.753642311524372    0.083941904865554  0.0000
  O1     O1        0.374012282518483    0.092876250819603    0.859478423589016  0.0000
  O1     O1        0.118538140291524    0.864386453441035    0.858126109554882  0.0000
  O1     O1        0.414657346518847    0.745261919922264    0.854286470068589  0.0000
  O1     O1        0.078518598971233    0.211097942045820    0.849666522694669  0.0000
  O1     O1        0.633115619391299    0.894744571635311    0.112397911739706  0.0000
  O1     O1        0.866834287184358    0.110459682865825    0.115955543486611  0.0000
  O1     O1        0.479610651640809    0.953668969395231    0.037684258595067  0.0000
  O1     O1        0.016101100913025    0.008275746329823    0.038906759903545  0.0000
  O3     O3        0.148629205866370    0.528212429450692    0.318116177633834  0.0000
  O3     O3        0.344018928343334    0.433037878820039    0.320057054964646  0.0000
  O1     O1        0.830988816762951    0.442136566020046    0.635988061203953  0.0000
  O1     O1        0.647161842930977    0.522687988205139    0.638618319121052  0.0000
  O3     O3        0.233171788310210    0.225767900000708    0.259959379928024  0.0000
  O3     O3        0.259273463498327    0.734037565116627    0.260750951653979  0.0000
  O1     O1        0.724129246547320    0.209092397341608    0.703510423469524  0.0000
  O1     O1        0.757086505663992    0.761680503080269    0.689644221272259  0.0000
  O1     O1        0.109620964208665    0.328967994192903    0.101326496703913  0.0000
  O1     O1        0.383936320909706    0.634660714835218    0.107293326687922  0.0000
  O1     O1        0.855217525647660    0.222265696275592    0.856347705083877  0.0000
  O1     O1        0.633354113620230    0.743850665775923    0.859092915467107  0.0000
  O3     O3        0.874320921687691    0.625896945505018    0.852933327919212  0.0000
  O1     O1        0.606586985975863    0.349841326669548    0.858588083097352  0.0000
  O3     O3        0.138154446172553    0.725602894689750    0.111098871139127  0.0000
  O3     O3        0.355115974710412    0.230297063775049    0.114328873749011  0.0000
  O1     O1        0.649591919082831    0.539002999026654    0.079007646244530  0.0000
  O3     O3        0.838275464711671    0.462662994246834    0.063213757161596  0.0000
  O1     O1        0.337224751397978    0.437496892926036    0.892490431785445  0.0000
  O1     O1        0.156690424870789    0.520426335608888    0.886820905225449  0.0000
  O1     O1        0.725820649494003    0.226291884454164    0.016411401124316  0.0000
  O3     O3        0.767896974333103    0.755894050255913    0.005198472933299  0.0000
  O1     O1        0.227484177016922    0.201067054830816    0.945947036679095  0.0000
  O1     O1        0.265836311453611    0.758466199117981    0.947215798361768  0.0000
