data_c00721.vasp
_audit_creation_method             Generated by GULP
_audit_author_name                 Salvador R. G. Balestra
_symmetry_space_group_name_H-M     'P 1             '
_symmetry_Int_Tables_number        1

loop_
_symmetry_equiv_pos_site_id
_symmetry_equiv_pos_as_xyz
_cell_length_a                       17.5726
_cell_length_b                        7.8033
_cell_length_c                       10.2700
_cell_angle_alpha                   90.4316
_cell_angle_beta                    90.6140
_cell_angle_gamma                   91.4054

loop_
_atom_site_label
_atom_site_type_symbol
_atom_site_fract_x
_atom_site_fract_y
_atom_site_fract_z
_atom_site_charge
  Ge     Ge        0.052090000000021    0.000000000000000    0.372269999999958  0.0000
  Ge     Ge        0.447309673291417    0.056798539569732    0.390014664354013  0.0000
  Ge     Ge        0.946177199340939    0.037911401573643    0.623193045527358  0.0000
  Ge     Ge        0.557908299250741    0.992041143926127    0.145317968830190  0.0000
  Ge     Ge        0.939730148579099    0.042410891327939    0.129782493819946  0.0000
  Ge     Ge        0.453227640077381    0.054619722089292    0.887255588814560  0.0000
  Ge     Ge        0.047571419530177    0.986025306994183    0.883457444493777  0.0000
  Ge     Ge        0.171413522083581    0.295907481159434    0.270489321551509  0.0000
  Ge     Ge        0.324578436930127    0.772735658808669    0.271772874755050  0.0000
  Ge     Ge        0.847996954504029    0.348149678096528    0.701369533186011  0.0000
  Ge     Ge        0.641993847494621    0.679467183882438    0.709956307042088  0.0000
  Ge     Ge        0.822855197249836    0.757662171816467    0.707447375186359  0.0000
  Ge     Ge        0.666566691814537    0.273644000991100    0.708652939081141  0.0000
  Ge     Ge        0.354081218133765    0.370488000136945    0.276507737307698  0.0000
  Ge     Ge        0.674756723560155    0.276003472965101    0.023929440113077  0.0000
  Ge     Ge        0.352566292918468    0.363082437202581    0.958916067942762  0.0000
  Ge     Ge        0.149573542864570    0.677130530892913    0.947303629384213  0.0000
  Ge     Ge        0.327179827281207    0.769232791530783    0.955487465422677  0.0000
  Ge     Ge        0.173235879197670    0.272502847555211    0.956336739129309  0.0000
  Ge     Ge        0.648385104736086    0.675324118423883    0.026085326968766  0.0000
  Si     Si        0.548725872828372    0.989751083920292    0.635991543167123  0.0000
  Si     Si        0.147540559527151    0.690958701790313    0.258719040572552  0.0000
  Si     Si        0.827271968033827    0.748725277403042    0.013943280646604  0.0000
  Si     Si        0.852893004806857    0.353363918464547    0.007078767919293  0.0000
  O1     O1        0.121402160973592    0.156793636005986    0.367118984442535  0.0000
  O1     O1        0.367438218109503    0.930744741030754    0.363329149481489  0.0000
  O1     O1        0.910366168593605    0.239820388129848    0.605919583679726  0.0000
  O3     O3        0.578282508003507    0.798059654324557    0.618607752757201  0.0000
  O1     O1        0.871671514269021    0.891243204137847    0.606630013990415  0.0000
  O3     O3        0.616084335561861    0.128935586192140    0.610509515531536  0.0000
  O3     O3        0.083763421909463    0.799496462579320    0.329693942510382  0.0000
  O1     O1        0.421458414943661    0.264044488241753    0.364821464110741  0.0000
  O1     O1        0.023097805153073    0.993144044497391    0.532650111332827  0.0000
  O3     O3        0.474654637567324    0.027581599809977    0.551577697759610  0.0000
  O1     O1        0.969657856524296    0.045766438910761    0.289354540754754  0.0000
  O1     O1        0.525134551373066    0.001523400265327    0.301691765422303  0.0000
  O1     O1        0.972676266351470    0.023753605678616    0.785551696233263  0.0000
  O3     O3        0.528266924227146    0.012768938395217    0.788823371781457  0.0000
  O1     O1        0.637054419732915    0.122112105170221    0.121984427560799  0.0000
  O3     O3        0.870189024904482    0.882463153308608    0.109194640657490  0.0000
  O1     O1        0.417179568622359    0.255406723236849    0.867663880686634  0.0000
  O1     O1        0.081625240296570    0.782152166947129    0.862486150043664  0.0000
  O1     O1        0.380666797368141    0.905226044384709    0.863449218553099  0.0000
  O1     O1        0.122474278736961    0.130118676575892    0.861824573760467  0.0000
  O1     O1        0.585351588057947    0.785545677502949    0.116787028369727  0.0000
  O3     O3        0.909521299995906    0.248641888991301    0.097044537662244  0.0000
  O1     O1        0.484196562098841    0.050140895403237    0.046906654339259  0.0000
  O1     O1        0.019195209379185    0.000388500734958    0.043402429785426  0.0000
  O3     O3        0.157880625892990    0.505931628687174    0.323513947678198  0.0000
  O1     O1        0.344619752013424    0.575495424047300    0.334823771915140  0.0000
  O1     O1        0.835691207406463    0.551770606559042    0.650342252071600  0.0000
  O1     O1        0.650719054018066    0.477073752823180    0.649327866467847  0.0000
  O1     O1        0.267378538197483    0.262679978206604    0.280739821634059  0.0000
  O3     O3        0.226952134990819    0.799481052146467    0.266916975539394  0.0000
  O1     O1        0.761948899680014    0.236873552880406    0.700309955626307  0.0000
  O1     O1        0.727389619459645    0.792680335139298    0.706700200665270  0.0000
  O1     O1        0.140141126645215    0.261961955688621    0.113736703204865  0.0000
  O1     O1        0.357654007584592    0.787117119975209    0.115333215223663  0.0000
  O3     O3        0.883269889962264    0.355530028153010    0.860676149129272  0.0000
  O1     O1        0.614018606591195    0.662194786151647    0.868906136456583  0.0000
  O3     O3        0.856392792208756    0.777181439852056    0.867686537772606  0.0000
  O1     O1        0.637784576513258    0.262684208709947    0.868317750646841  0.0000
  O3     O3        0.124580825862155    0.654614997613958    0.109703662192389  0.0000
  O1     O1        0.383274285433567    0.384527543032022    0.118061236732297  0.0000
  O1     O1        0.654959912859947    0.473788235919208    0.087989171134011  0.0000
  O2     O2        0.842776103108429    0.550604259052585    0.055203431683928  0.0000
  O1     O1        0.338225441071742    0.562027283019849    0.898833612447065  0.0000
  O1     O1        0.162058629622136    0.474889063946907    0.891085669556281  0.0000
  O3     O3        0.771745766356181    0.254409944873816    0.010177663350423  0.0000
  O3     O3        0.737394281498894    0.777052867125526    0.020647319319935  0.0000
  O1     O1        0.269335342680830    0.239941433013642    0.960661442205056  0.0000
  O1     O1        0.231563093082761    0.803670174278860    0.944655485387173  0.0000
