data_c00769.vasp
_audit_creation_method             Generated by GULP
_audit_author_name                 Salvador R. G. Balestra
_symmetry_space_group_name_H-M     'P 1             '
_symmetry_Int_Tables_number        1

loop_
_symmetry_equiv_pos_site_id
_symmetry_equiv_pos_as_xyz
_cell_length_a                       17.4312
_cell_length_b                        7.8175
_cell_length_c                       10.3198
_cell_angle_alpha                   92.3843
_cell_angle_beta                    92.4851
_cell_angle_gamma                   92.9978

loop_
_atom_site_label
_atom_site_type_symbol
_atom_site_fract_x
_atom_site_fract_y
_atom_site_fract_z
_atom_site_charge
  Ge     Ge        0.052090000000021    0.000000000000000    0.372269999999958  0.0000
  Ge     Ge        0.458538907521854    0.060069622013184    0.348199841860942  0.0000
  Ge     Ge        0.941781246406670    0.984383093089966    0.615888831382389  0.0000
  Ge     Ge        0.558771368896828    0.989469418293518    0.103222703674746  0.0000
  Ge     Ge        0.936263614092609    0.985750286207477    0.123186972898430  0.0000
  Ge     Ge        0.437192909814103    0.991801797591330    0.873567284644639  0.0000
  Ge     Ge        0.043643103235270    0.960280220174229    0.879954692467434  0.0000
  Ge     Ge        0.177040795672735    0.288853433533745    0.268619194388050  0.0000
  Ge     Ge        0.328712526662328    0.755134995514555    0.248542167564018  0.0000
  Ge     Ge        0.815813247574335    0.248572226512794    0.679790260282500  0.0000
  Ge     Ge        0.651486962301397    0.698881871122389    0.688624051125357  0.0000
  Ge     Ge        0.839272918760477    0.667832179992588    0.694711599202026  0.0000
  Ge     Ge        0.151068650670617    0.700563395860245    0.248627884242758  0.0000
  Ge     Ge        0.361909398204667    0.370112607264899    0.275476558683329  0.0000
  Ge     Ge        0.358397294745489    0.334419780612498    0.952921549788856  0.0000
  Ge     Ge        0.133297268314320    0.639810104011147    0.938302987464701  0.0000
  Ge     Ge        0.311100298979773    0.701940894714558    0.926832859468111  0.0000
  Ge     Ge        0.172037182919039    0.245728095543855    0.957796074579906  0.0000
  Ge     Ge        0.661597774287698    0.691652843589190    0.004794730548122  0.0000
  Ge     Ge        0.819490085865205    0.252447797667696    0.991748724045935  0.0000
  Si     Si        0.535140548098086    0.975125704384336    0.620352424640100  0.0000
  Si     Si        0.643136166640539    0.306807207486011    0.677453730512102  0.0000
  Si     Si        0.646580388667852    0.306645620239717    0.984524815840636  0.0000
  Si     Si        0.846019880621419    0.658297718063009    0.998994658510206  0.0000
  O1     O1        0.124171632513929    0.156543428710780    0.363076031338398  0.0000
  O1     O1        0.383147848515221    0.941901646215742    0.266381731208534  0.0000
  O1     O1        0.869529221087936    0.122214158993821    0.585252626744091  0.0000
  O3     O3        0.600400340374667    0.841572472725403    0.600020354184649  0.0000
  O1     O1        0.899664769623588    0.779165132108899    0.600013858702483  0.0000
  O2     O2        0.573147150100096    0.168708687150518    0.644529750467768  0.0000
  O1     O1        0.083996754444909    0.801883559011848    0.335980808893802  0.0000
  O1     O1        0.428264579255061    0.262423694920779    0.365286516886119  0.0000
  O1     O1        0.021477636558888    0.008917035581937    0.528562599591258  0.0000
  O3     O3        0.477485642167471    0.971843086135228    0.495724296769833  0.0000
  O1     O1        0.969018710374593    0.026824191110269    0.280059146108985  0.0000
  O1     O1        0.539248962356413    0.052561151831820    0.257438804192209  0.0000
  O1     O1        0.973436314052490    0.021749976039191    0.775063758811885  0.0000
  O3     O3        0.487567727741309    0.923916505537352    0.742854729178357  0.0000
  O3     O3        0.581618100952755    0.161955549856692    0.005015800922434  0.0000
  O3     O3        0.902733883995027    0.771347301768360    0.097694680396339  0.0000
  O1     O1        0.420221651345795    0.204659438947827    0.875068828039666  0.0000
  O1     O1        0.062393272394321    0.747175347016177    0.857756931823824  0.0000
  O1     O1        0.347075760756656    0.888939679550808    0.870402811932746  0.0000
  O1     O1        0.129424747098703    0.078310457200578    0.866539903153392  0.0000
  O1     O1        0.626831450368696    0.840998968985765    0.109469832199764  0.0000
  O1     O1        0.863425400198571    0.120112207108276    0.093770875418910  0.0000
  O1     O1        0.478023179005498    0.914263002123869    0.013762811454252  0.0000
  O1     O1        0.013436436637087    0.024030626976887    0.031050945631546  0.0000
  O1     O1        0.136135275349901    0.482456404817278    0.259198633100338  0.0000
  O1     O1        0.380333514856529    0.587352163316970    0.301423902970317  0.0000
  O1     O1        0.853121168549020    0.454908361650697    0.676689424029595  0.0000
  O3     O3        0.618886029903505    0.491466856907244    0.635890683961612  0.0000
  O1     O1        0.270856257148737    0.325551183814738    0.326678104944166  0.0000
  O1     O1        0.240642080360675    0.770161048559148    0.315717933114132  0.0000
  O3     O3        0.720718486118033    0.247169522066582    0.616827301207633  0.0000
  O1     O1        0.746190171554723    0.717751576029544    0.655294827586654  0.0000
  O1     O1        0.181347891973413    0.191338956479753    0.117629231149279  0.0000
  O1     O1        0.297371681313902    0.689619118967966    0.092263225823864  0.0000
  O1     O1        0.818720330914330    0.173239047771413    0.834323331390461  0.0000
  O1     O1        0.639587339444424    0.750270986794558    0.850013886905926  0.0000
  O3     O3        0.857747764772610    0.731774743701862    0.857379178858648  0.0000
  O2     O2        0.666277386282536    0.335646166444624    0.832745215575905  0.0000
  O1     O1        0.135979964471206    0.747458397669671    0.088855488310656  0.0000
  O1     O1        0.373595202140090    0.303601525054168    0.116087833834552  0.0000
  O3     O3        0.620499513598912    0.490109918872164    0.035889673450000  0.0000
  O3     O3        0.863011071293569    0.458115859974148    0.999386152071233  0.0000
  O1     O1        0.373617051137790    0.539903676933625    0.903334847217280  0.0000
  O1     O1        0.116255733205536    0.423680307407180    0.947148556426662  0.0000
  O3     O3        0.726595020429557    0.254200040174336    0.049043442088136  0.0000
  O3     O3        0.758159072530123    0.677696334765224    0.036244367826563  0.0000
  O1     O1        0.262397145281492    0.295080701871750    0.907721921617182  0.0000
  O1     O1        0.219109725104357    0.669015606321312    0.862624530586667  0.0000
