data_c00706.vasp
_audit_creation_method             Generated by GULP
_audit_author_name                 Salvador R. G. Balestra
_symmetry_space_group_name_H-M     'P 1             '
_symmetry_Int_Tables_number        1

loop_
_symmetry_equiv_pos_site_id
_symmetry_equiv_pos_as_xyz
_cell_length_a                       17.5830
_cell_length_b                        7.7999
_cell_length_c                       10.2473
_cell_angle_alpha                   90.6119
_cell_angle_beta                    90.3327
_cell_angle_gamma                   90.8583

loop_
_atom_site_label
_atom_site_type_symbol
_atom_site_fract_x
_atom_site_fract_y
_atom_site_fract_z
_atom_site_charge
  Ge     Ge        0.052090000000021    0.000000000000000    0.372269999999958  0.0000
  Ge     Ge        0.446159603599996    0.046726930158376    0.380593768001861  0.0000
  Ge     Ge        0.944599612176988    0.034134346228384    0.621868798398167  0.0000
  Ge     Ge        0.555641085901196    0.990431401362489    0.133551536388870  0.0000
  Ge     Ge        0.937266396070063    0.044538444709801    0.133195528333878  0.0000
  Ge     Ge        0.449411718957870    0.046993639480940    0.879118450125291  0.0000
  Ge     Ge        0.043858018179469    0.981911339941116    0.883354684768442  0.0000
  Ge     Ge        0.170430487377945    0.292355336091688    0.268754838798974  0.0000
  Ge     Ge        0.322825814276978    0.766325508968540    0.266595625420418  0.0000
  Ge     Ge        0.844370260846999    0.346036075479818    0.698576922734687  0.0000
  Ge     Ge        0.641735009290141    0.675456546382884    0.702485015293183  0.0000
  Ge     Ge        0.821588288516458    0.754590076502444    0.700774891837085  0.0000
  Ge     Ge        0.664188848490187    0.267560319910091    0.703918848075886  0.0000
  Ge     Ge        0.353085098389910    0.363915937983000    0.268517797596153  0.0000
  Ge     Ge        0.670044403229511    0.281359269486013    0.018888552848302  0.0000
  Ge     Ge        0.821943094231433    0.750661637678502    0.015398233188662  0.0000
  Ge     Ge        0.348423849199368    0.356753098677240    0.950678491092241  0.0000
  Ge     Ge        0.147224630163399    0.672599878223509    0.943312908821213  0.0000
  Ge     Ge        0.323950910782710    0.763419954432765    0.949059275871306  0.0000
  Ge     Ge        0.169716420870981    0.267615490626528    0.954466334742647  0.0000
  Si     Si        0.547253079413475    0.985174918018995    0.628634401577585  0.0000
  Si     Si        0.146086162275105    0.687163863426000    0.256228514486425  0.0000
  Si     Si        0.644010602300865    0.676598187725104    0.012085872530733  0.0000
  Si     Si        0.847887177899644    0.353431543300631    0.009050820877964  0.0000
  O1     O1        0.122170096927387    0.153232179932925    0.367614406253551  0.0000
  O1     O1        0.365653396992768    0.923485928503843    0.358452664977421  0.0000
  O1     O1        0.908604579421279    0.236864292696285    0.606155127927214  0.0000
  O3     O3        0.577271113224072    0.792566539876606    0.612220806438473  0.0000
  O1     O1        0.871517736094394    0.886883197043326    0.600184126178448  0.0000
  O3     O3        0.614413963650145    0.124007630172915    0.604555671313830  0.0000
  O3     O3        0.081675791862378    0.798115238578357    0.325602637298486  0.0000
  O1     O1        0.421408888331425    0.254764116333434    0.352845730875958  0.0000
  O1     O1        0.023023886924917    0.990955195255502    0.533115879325063  0.0000
  O3     O3        0.474060224976063    0.022634470270919    0.542534029548118  0.0000
  O1     O1        0.969900604478450    0.053431536606561    0.291372286389159  0.0000
  O1     O1        0.522706805747911    0.983321254298505    0.290623092387215  0.0000
  O1     O1        0.969088758708019    0.021609592213259    0.785519953744013  0.0000
  O3     O3        0.525428225192180    0.007109684682713    0.781254649027685  0.0000
  O1     O1        0.628956334377684    0.138006400955811    0.122029785381046  0.0000
  O1     O1        0.864082196431231    0.896490584256318    0.118460596030755  0.0000
  O1     O1        0.411950029465667    0.246826373122368    0.857228121483417  0.0000
  O1     O1        0.078464731877310    0.777686055853649    0.860302020208838  0.0000
  O1     O1        0.377977145894403    0.896455572395300    0.855993704000398  0.0000
  O1     O1        0.117861839395942    0.126117050210581    0.861631208432868  0.0000
  O3     O3        0.583847037739843    0.784877441351161    0.092987264579529  0.0000
  O3     O3        0.908787349330499    0.248446953097319    0.090491642768232  0.0000
  O1     O1        0.480035715816899    0.046738591376172    0.039068389053929  0.0000
  O1     O1        0.014463836169220    0.987842842736796    0.043447155692455  0.0000
  O3     O3        0.156120313896745    0.502513601106403    0.322266920966425  0.0000
  O1     O1        0.343589284775696    0.568796808828016    0.328702458182790  0.0000
  O1     O1        0.831945778358015    0.547633551197281    0.642517715312055  0.0000
  O1     O1        0.649469453327354    0.471471816133392    0.643996938167238  0.0000
  O1     O1        0.266405798659814    0.258072040708256    0.275363778099311  0.0000
  O3     O3        0.225158731521240    0.794639263942271    0.264936543774143  0.0000
  O1     O1        0.759803265068472    0.230796577857173    0.697124659246967  0.0000
  O1     O1        0.725642107099169    0.790559782201488    0.698975493768294  0.0000
  O1     O1        0.137342921327797    0.256325136944446    0.112949045846216  0.0000
  O1     O1        0.354466983465048    0.781936100590178    0.108751417012428  0.0000
  O3     O3        0.874546265886140    0.368476680479606    0.859857685272616  0.0000
  O3     O3        0.614582657282189    0.652803569603325    0.863949528774360  0.0000
  O1     O1        0.854498395777226    0.777367713713779    0.859513694689306  0.0000
  O1     O1        0.634799287991306    0.252777743486007    0.863713268306594  0.0000
  O3     O3        0.124431059225569    0.647410335060285    0.107042065673294  0.0000
  O1     O1        0.380400511223705    0.380699341924506    0.108957021743628  0.0000
  O3     O3        0.653260657786525    0.489334808959176    0.073135146977211  0.0000
  O3     O3        0.839810036300598    0.543870610584563    0.067883119410195  0.0000
  O1     O1        0.333038059996909    0.555572193201858    0.891053452607576  0.0000
  O1     O1        0.158796757114087    0.469102930469152    0.887457501284131  0.0000
  O3     O3        0.767199110365753    0.252244864604185    0.013419677426924  0.0000
  O3     O3        0.724501711014313    0.778462386064245    0.012577851077626  0.0000
  O1     O1        0.265747329466007    0.233530769485604    0.956618314315066  0.0000
  O1     O1        0.228297679759524    0.799987757330629    0.938871608334233  0.0000
