data_c00760.vasp
_audit_creation_method             Generated by GULP
_audit_author_name                 Salvador R. G. Balestra
_symmetry_space_group_name_H-M     'P 1             '
_symmetry_Int_Tables_number        1

loop_
_symmetry_equiv_pos_site_id
_symmetry_equiv_pos_as_xyz
_cell_length_a                       17.8097
_cell_length_b                        7.8555
_cell_length_c                       10.3559
_cell_angle_alpha                   91.0318
_cell_angle_beta                    90.2933
_cell_angle_gamma                   91.1196

loop_
_atom_site_label
_atom_site_type_symbol
_atom_site_fract_x
_atom_site_fract_y
_atom_site_fract_z
_atom_site_charge
  Ge     Ge        0.052090000000021    0.000000000000000    0.372269999999958  0.0000
  Ge     Ge        0.451989786135131    0.044595084412899    0.355128547588078  0.0000
  Ge     Ge        0.945955284014970    0.004433637481367    0.623660131240149  0.0000
  Ge     Ge        0.554638773324413    0.036143648208842    0.096252160491110  0.0000
  Ge     Ge        0.946389141565114    0.019865133250835    0.120842632235387  0.0000
  Ge     Ge        0.446732327807300    0.034391014031269    0.844150345818344  0.0000
  Ge     Ge        0.054368267454459    0.010026685677307    0.876297645014233  0.0000
  Ge     Ge        0.173710224701814    0.288939795091550    0.255765390009400  0.0000
  Ge     Ge        0.331635748935589    0.759360627031025    0.270174368418565  0.0000
  Ge     Ge        0.827195246859928    0.287418024798218    0.700056889374771  0.0000
  Ge     Ge        0.660319064149833    0.724798900442097    0.703273793114898  0.0000
  Ge     Ge        0.840845964132339    0.691548472880513    0.687289001280623  0.0000
  Ge     Ge        0.152663177500114    0.695014051208537    0.266316273175399  0.0000
  Ge     Ge        0.353435878760196    0.349878616734965    0.264456309018900  0.0000
  Ge     Ge        0.654967422028093    0.353505909262412    0.027628723592881  0.0000
  Ge     Ge        0.356098096318582    0.355042073619513    0.952204696491576  0.0000
  Ge     Ge        0.154901014049623    0.698748652014778    0.952564253753488  0.0000
  Ge     Ge        0.174875845115344    0.298654384292143    0.940680540882456  0.0000
  Ge     Ge        0.672881972465778    0.756239497283957    0.016086091841370  0.0000
  Ge     Ge        0.832933055000278    0.308194342174012    0.012059092107714  0.0000
  Si     Si        0.551350640655840    0.015883589822095    0.605791902605680  0.0000
  Si     Si        0.649903347743853    0.326934617875854    0.719443540073067  0.0000
  Si     Si        0.847642097498356    0.710400071580064    0.996115439325604  0.0000
  Si     Si        0.332999821636852    0.756124694832885    0.964208316515962  0.0000
  O1     O1        0.122058084979093    0.145954131019673    0.341744121011262  0.0000
  O1     O1        0.381779606538293    0.893339364005285    0.371274606876073  0.0000
  O1     O1        0.874654694950876    0.147642249765144    0.605171189280487  0.0000
  O3     O3        0.604433650415848    0.854313845277147    0.612436659082724  0.0000
  O1     O1        0.904067395714546    0.807008199833519    0.600148494717401  0.0000
  O2     O2        0.591921338943884    0.191651580009614    0.653707609817023  0.0000
  O1     O1        0.087735686246009    0.799840112129018    0.357310750129871  0.0000
  O1     O1        0.413953956317330    0.242557844901186    0.361845705241676  0.0000
  O1     O1        0.022261567643886    0.033582150275792    0.528777527340837  0.0000
  O3     O3        0.527701345909569    0.032491104484523    0.457337714955654  0.0000
  O1     O1        0.972509573473570    0.017581554476166    0.280064721382391  0.0000
  O1     O1        0.484930864698212    0.000118191049593    0.202090879279424  0.0000
  O1     O1        0.977191235744870    0.026141896554905    0.781229516247752  0.0000
  O3     O3        0.475334714270643    0.992679580367344    0.687061633994537  0.0000
  O1     O1        0.590335204704199    0.240759137309771    0.113385433170472  0.0000
  O3     O3        0.908382539175556    0.823673397976354    0.073558680912390  0.0000
  O1     O1        0.416608432195284    0.240694628431892    0.858618684199171  0.0000
  O1     O1        0.096339171981916    0.815626842379959    0.860280913323434  0.0000
  O3     O3        0.372889793948805    0.895295159462491    0.876436515789377  0.0000
  O1     O1        0.124075090897100    0.159173099293267    0.846099015103644  0.0000
  O1     O1        0.629323005134934    0.900678280255248    0.111554607346348  0.0000
  O1     O1        0.886173973995640    0.186479962150719    0.109582091270286  0.0000
  O1     O1        0.521620239617265    0.999354727734176    0.941714346427563  0.0000
  O1     O1        0.026426264861115    0.048171673515168    0.033231718984639  0.0000
  O1     O1        0.162465683300666    0.491802584377610    0.318909148375831  0.0000
  O1     O1        0.343606056878516    0.553283028747788    0.319680499414259  0.0000
  O1     O1        0.838971587809492    0.484984985971428    0.634517978339003  0.0000
  O3     O3        0.649729536560119    0.511238975253195    0.653960727489501  0.0000
  O1     O1        0.267608287814409    0.244336224667773    0.261364289273046  0.0000
  O1     O1        0.238060794144640    0.802229334918318    0.276605580264524  0.0000
  O3     O3        0.731660912133683    0.244642260264067    0.710608253076985  0.0000
  O1     O1        0.753099371437430    0.777838779811296    0.679843160276129  0.0000
  O1     O1        0.144564485476260    0.290408482969539    0.098230600245480  0.0000
  O3     O3        0.362703166990200    0.769962552591904    0.111271952110696  0.0000
  O1     O1        0.861331419431641    0.278680272323092    0.855536402889043  0.0000
  O1     O1        0.636739941523926    0.751917816600404    0.861425826597079  0.0000
  O3     O3        0.871203581112638    0.691885967506936    0.847239173244544  0.0000
  O3     O3        0.626366203156815    0.356984082179065    0.866673468833258  0.0000
  O1     O1        0.122018004185126    0.694664128707289    0.108265435649776  0.0000
  O1     O1        0.387583643341596    0.344319216846908    0.108846795138844  0.0000
  O1     O1        0.660625147733262    0.558548397496062    0.082970778829640  0.0000
  O3     O3        0.840801506921318    0.523299353683521    0.055183348871355  0.0000
  O3     O3        0.349297815556685    0.566288149919582    0.909141310025988  0.0000
  O1     O1        0.159896233499731    0.500444866969832    0.885363924273613  0.0000
  O1     O1        0.740052944763115    0.254870799385311    0.031207244109791  0.0000
  O3     O3        0.767915083834737    0.803501159906949    0.003658755399820  0.0000
  O1     O1        0.268907248889902    0.259705845018722    0.938528350683004  0.0000
  O3     O3        0.244451071122867    0.789386700323005    0.964409859556761  0.0000
