data_c00703.vasp
_audit_creation_method             Generated by GULP
_audit_author_name                 Salvador R. G. Balestra
_symmetry_space_group_name_H-M     'P 1             '
_symmetry_Int_Tables_number        1

loop_
_symmetry_equiv_pos_site_id
_symmetry_equiv_pos_as_xyz
_cell_length_a                       17.7632
_cell_length_b                        7.7938
_cell_length_c                       10.5209
_cell_angle_alpha                   88.4563
_cell_angle_beta                    90.7208
_cell_angle_gamma                   89.6891

loop_
_atom_site_label
_atom_site_type_symbol
_atom_site_fract_x
_atom_site_fract_y
_atom_site_fract_z
_atom_site_charge
  Ge     Ge        0.052090000000021    0.000000000000000    0.372269999999958  0.0000
  Ge     Ge        0.450089142162771    0.032471264438263    0.401578355776484  0.0000
  Ge     Ge        0.947441682737569    0.003463625734604    0.623179336537278  0.0000
  Ge     Ge        0.558823630514937    0.025321625596934    0.156394690811402  0.0000
  Ge     Ge        0.949610418905372    0.995924365459564    0.114660136138685  0.0000
  Ge     Ge        0.449809789003563    0.043292934232474    0.908273518038184  0.0000
  Ge     Ge        0.056679795777680    0.017383818631213    0.871673503474883  0.0000
  Ge     Ge        0.173923737536043    0.278920301366425    0.292318948451228  0.0000
  Ge     Ge        0.331930685802142    0.745802908707350    0.295532295572658  0.0000
  Ge     Ge        0.824486291510065    0.285029688212928    0.733186795753276  0.0000
  Ge     Ge        0.664523812461053    0.760305728645966    0.735664656611319  0.0000
  Ge     Ge        0.844719350140867    0.694739114591993    0.731276501413126  0.0000
  Ge     Ge        0.645662100715008    0.347190751342283    0.735064299573478  0.0000
  Ge     Ge        0.153177230606933    0.688618624635750    0.299561416720241  0.0000
  Ge     Ge        0.852427780396585    0.678414324507203    0.041255765401764  0.0000
  Ge     Ge        0.351665424012839    0.359733195645092    0.984073102608941  0.0000
  Ge     Ge        0.328038850129498    0.768446699526034    0.987925161578515  0.0000
  Ge     Ge        0.172607551925154    0.300831023436857    0.985068437041700  0.0000
  Ge     Ge        0.672338197409664    0.741852502607987    0.042673484504238  0.0000
  Ge     Ge        0.825345331615339    0.273930478001731    0.042493878449625  0.0000
  Si     Si        0.547386134223347    0.042496327525909    0.656573714663580  0.0000
  Si     Si        0.349581606304517    0.340137485411286    0.286962660381302  0.0000
  Si     Si        0.649559616946898    0.338130198009851    0.037289639337687  0.0000
  Si     Si        0.152326366913686    0.706585365218710    0.996110687450623  0.0000
  O1     O1        0.126733165204085    0.138751187443181    0.388803818534619  0.0000
  O1     O1        0.387115915118040    0.867886448070502    0.390889812432297  0.0000
  O1     O1        0.877660245283981    0.151922098179185    0.644478431187301  0.0000
  O3     O3        0.613419639260367    0.902619900459993    0.639075989503626  0.0000
  O1     O1        0.909213816595189    0.803492442459029    0.641459801943833  0.0000
  O3     O3        0.581022657984494    0.233610391583477    0.647250521290304  0.0000
  O1     O1        0.088098676870479    0.795232715002235    0.386540744360696  0.0000
  O3     O3        0.408710036252222    0.230363570988073    0.371056165941714  0.0000
  O1     O1        0.978332292706645    0.031203389038106    0.469373794318531  0.0000
  O3     O3        0.479226567748615    0.025009536081385    0.559270278055782  0.0000
  O1     O1        0.020313365158139    0.036205040723327    0.218034562472189  0.0000
  O1     O1        0.527825034858672    0.011580428619043    0.309742019962037  0.0000
  O1     O1        0.026630684517054    0.023821847011578    0.716293944356809  0.0000
  O3     O3        0.517436817033224    0.005891923575020    0.798954082969061  0.0000
  O3     O3        0.591577669296697    0.230618904948516    0.121756976840657  0.0000
  O1     O1        0.918061102573865    0.788231363108132    0.126966317260417  0.0000
  O1     O1        0.418167365407145    0.251737960502013    0.901428296638977  0.0000
  O3     O3        0.092657825193596    0.815567811371298    0.912620176200337  0.0000
  O1     O1        0.371584542506061    0.914134672365033    0.892001576477947  0.0000
  O1     O1        0.122092204207967    0.177282364645515    0.884218117646323  0.0000
  O1     O1        0.627865534135361    0.871799001935218    0.145426397283241  0.0000
  O1     O1        0.871201928223907    0.125081112714816    0.134872300248830  0.0000
  O1     O1        0.485343610537220    0.984865585477103    0.055949856699542  0.0000
  O1     O1        0.979739055354633    0.049242872908215    0.963551625073322  0.0000
  O1     O1        0.158920883061620    0.480336210314190    0.350404968951549  0.0000
  O3     O3        0.338900041807609    0.529064131749936    0.340093166464019  0.0000
  O1     O1        0.832595322335180    0.493122872689916    0.675424851043361  0.0000
  O1     O1        0.651102747568202    0.554821378017766    0.681593254442654  0.0000
  O3     O3        0.270018961015219    0.240600362641370    0.288422075379280  0.0000
  O1     O1        0.238064378890644    0.793062664315036    0.309847419346341  0.0000
  O1     O1        0.730000236545786    0.239933638032107    0.726398765644051  0.0000
  O1     O1        0.759256714665808    0.801603587233382    0.729152551745664  0.0000
  O1     O1        0.142211333228003    0.266255071266972    0.137510902290478  0.0000
  O1     O1        0.360582974178396    0.778644369018304    0.142467287097274  0.0000
  O1     O1        0.855546851681708    0.271638524790802    0.887708270425396  0.0000
  O1     O1        0.636949529913443    0.772072615878725    0.891195719241300  0.0000
  O1     O1        0.879258374250850    0.681515757121422    0.884501126461985  0.0000
  O3     O3        0.618203533945977    0.349927938236889    0.892986152734358  0.0000
  O3     O3        0.124214397120220    0.693168279162480    0.140663728340835  0.0000
  O3     O3        0.379097593934079    0.354630015921799    0.143449361001688  0.0000
  O3     O3        0.661090801611207    0.527131154186022    0.089608972816481  0.0000
  O1     O1        0.844248511317473    0.474117222401893    0.100546485456280  0.0000
  O1     O1        0.345142876796782    0.567027700299079    0.930794138243835  0.0000
  O3     O3        0.162286774959478    0.517530338887324    0.942601923247549  0.0000
  O3     O3        0.729346807806400    0.238131402408361    0.038682709605537  0.0000
  O1     O1        0.766657865555860    0.782862990237028    0.043426923463116  0.0000
  O1     O1        0.266685580838338    0.256374294360639    0.973545395203969  0.0000
  O3     O3        0.231927791774133    0.804982408135976    0.993243541418021  0.0000
