data_c00793.vasp
_audit_creation_method             Generated by GULP
_audit_author_name                 Salvador R. G. Balestra
_symmetry_space_group_name_H-M     'P 1             '
_symmetry_Int_Tables_number        1

loop_
_symmetry_equiv_pos_site_id
_symmetry_equiv_pos_as_xyz
_cell_length_a                       17.5419
_cell_length_b                        7.8216
_cell_length_c                       10.2641
_cell_angle_alpha                   88.7842
_cell_angle_beta                    90.0832
_cell_angle_gamma                   91.5119

loop_
_atom_site_label
_atom_site_type_symbol
_atom_site_fract_x
_atom_site_fract_y
_atom_site_fract_z
_atom_site_charge
  Ge     Ge        0.052090000000021    0.000000000000000    0.372269999999958  0.0000
  Ge     Ge        0.453062808836919    0.053361333259643    0.418131505819721  0.0000
  Ge     Ge        0.949125257631102    0.051620664606621    0.625191845685329  0.0000
  Ge     Ge        0.559759648096027    0.998191067836571    0.168648241464850  0.0000
  Ge     Ge        0.952992328033953    0.060392796624669    0.110397882978235  0.0000
  Ge     Ge        0.456774841096512    0.078699782016386    0.913202509978003  0.0000
  Ge     Ge        0.063403918736677    0.012580612779924    0.864308837885156  0.0000
  Ge     Ge        0.177342562008253    0.282616167210962    0.296007521685928  0.0000
  Ge     Ge        0.330582356546023    0.771952427770505    0.305844212599533  0.0000
  Ge     Ge        0.856521338115660    0.367719736995672    0.740073208730295  0.0000
  Ge     Ge        0.651969141003754    0.694255276321556    0.733656116243033  0.0000
  Ge     Ge        0.673598657142761    0.293882434252946    0.735691634991569  0.0000
  Ge     Ge        0.150220882818037    0.688327362335271    0.300357856374427  0.0000
  Ge     Ge        0.358776059586723    0.367927532117119    0.296239872129487  0.0000
  Ge     Ge        0.678104705505533    0.286523486991831    0.051305201338450  0.0000
  Ge     Ge        0.831282969250729    0.764018944937954    0.046348941141218  0.0000
  Ge     Ge        0.360108326487040    0.390773853209893    0.978173977529734  0.0000
  Ge     Ge        0.332742250178142    0.790182444733072    0.990682207815317  0.0000
  Ge     Ge        0.178982931839678    0.306575402137703    0.980769903473198  0.0000
  Ge     Ge        0.650116852507636    0.686274303367308    0.051388439594897  0.0000
  Si     Si        0.556520312728033    0.008374690170551    0.665935357989164  0.0000
  Si     Si        0.831318415205935    0.765045531143764    0.738150052003286  0.0000
  Si     Si        0.154969364854011    0.705174720052081    0.991742812537330  0.0000
  Si     Si        0.855780230352433    0.368754354342832    0.046430934531419  0.0000
  O1     O1        0.128116818177059    0.140625294072131    0.394785458961605  0.0000
  O1     O1        0.376969120630144    0.914174013837062    0.404264833790571  0.0000
  O1     O1        0.921866744387116    0.256715799693673    0.655113118522942  0.0000
  O3     O3        0.590065861819557    0.821522457917528    0.645911474385603  0.0000
  O3     O3        0.874104961552745    0.907940392386520    0.650118068686611  0.0000
  O3     O3        0.623876786802170    0.148727286840939    0.641026940725843  0.0000
  O1     O1        0.083362407647654    0.793936739053483    0.386881223429731  0.0000
  O1     O1        0.426001131546758    0.257763144186463    0.382505440897188  0.0000
  O1     O1        0.974038583653612    0.038877647765202    0.463249140014244  0.0000
  O3     O3        0.483009550028129    0.043712617810258    0.579832396897745  0.0000
  O1     O1        0.028222594179056    0.033399094347939    0.210025445375496  0.0000
  O1     O1        0.529704589882749    0.997340291835979    0.327142375154576  0.0000
  O1     O1        0.031703971461193    0.003127313237009    0.705900750317567  0.0000
  O3     O3        0.531379826919721    0.022738652502764    0.817340087579005  0.0000
  O1     O1        0.639877547057397    0.127734204453705    0.148045764618310  0.0000
  O1     O1        0.884310089562121    0.901008581200329    0.137092895483305  0.0000
  O1     O1        0.425152221082833    0.282840160248183    0.888571938135198  0.0000
  O3     O3        0.096195159835567    0.811986898185761    0.906127651862076  0.0000
  O1     O1        0.378647209418874    0.942227525854718    0.897594442422683  0.0000
  O1     O1        0.131998522393852    0.171832945460052    0.877215395846481  0.0000
  O1     O1        0.581760918573606    0.791647004753976    0.132832230597124  0.0000
  O3     O3        0.912770851928365    0.259023855249863    0.133771886980780  0.0000
  O1     O1        0.487081018588229    0.070355935531368    0.072949531975010  0.0000
  O1     O1        0.983611801853995    0.055958329133041    0.951794445315592  0.0000
  O1     O1        0.161834142341645    0.484519881006813    0.355268145138613  0.0000
  O1     O1        0.344767909408679    0.565256040047615    0.360344331084745  0.0000
  O3     O3        0.846613714120918    0.576878563063686    0.683728810907669  0.0000
  O1     O1        0.656549501878956    0.495198728205900    0.670898968154223  0.0000
  O1     O1        0.273789881071546    0.251118051279841    0.297695514852956  0.0000
  O1     O1        0.234524947018024    0.805565306922677    0.307876804126005  0.0000
  O1     O1        0.769728476613851    0.262562659738163    0.728637520657278  0.0000
  O3     O3        0.741130305780594    0.795418328899392    0.737011924084199  0.0000
  O1     O1        0.146262922507722    0.271381881686374    0.136428898735055  0.0000
  O1     O1        0.364944113991340    0.799661591658912    0.149236443747354  0.0000
  O3     O3        0.887447621857614    0.383414764657374    0.899084073295657  0.0000
  O1     O1        0.622404587902472    0.668564787956909    0.891633043107557  0.0000
  O3     O3        0.861486503452655    0.781659423595338    0.885618688578558  0.0000
  O1     O1        0.642815500806363    0.276570918272402    0.894747209486670  0.0000
  O3     O3        0.123037264089150    0.678968131008569    0.137458362555067  0.0000
  O1     O1        0.388435870439796    0.400556129412634    0.138749080749882  0.0000
  O1     O1        0.658934687626013    0.482936964007202    0.114079872908303  0.0000
  O3     O3        0.844324235592125    0.554771548414714    0.102902493068998  0.0000
  O1     O1        0.351279620514488    0.595765980500996    0.922781292423350  0.0000
  O3     O3        0.167513672815149    0.519922216132590    0.932529473061895  0.0000
  O3     O3        0.775359710373071    0.264371486005336    0.038190359471036  0.0000
  O1     O1        0.735957111481602    0.799075417467065    0.058083604727243  0.0000
  O1     O1        0.275012364716783    0.275286865985871    0.975671361670259  0.0000
  O3     O3        0.234919074989656    0.812875836200700    0.996134687555956  0.0000
