data_c00758.vasp
_audit_creation_method             Generated by GULP
_audit_author_name                 Salvador R. G. Balestra
_symmetry_space_group_name_H-M     'P 1             '
_symmetry_Int_Tables_number        1

loop_
_symmetry_equiv_pos_site_id
_symmetry_equiv_pos_as_xyz
_cell_length_a                       17.5333
_cell_length_b                        7.9169
_cell_length_c                       10.4304
_cell_angle_alpha                   91.9763
_cell_angle_beta                    90.9799
_cell_angle_gamma                   90.9311

loop_
_atom_site_label
_atom_site_type_symbol
_atom_site_fract_x
_atom_site_fract_y
_atom_site_fract_z
_atom_site_charge
  Ge     Ge        0.052090000000021    0.000000000000000    0.372269999999958  0.0000
  Ge     Ge        0.455684784228883    0.045320220197054    0.372553215289531  0.0000
  Ge     Ge        0.947028422813037    0.027405462849245    0.622421828447438  0.0000
  Ge     Ge        0.563309013980540    0.031952262685495    0.127281901369776  0.0000
  Ge     Ge        0.939946811154246    0.044509037540190    0.128713746609132  0.0000
  Ge     Ge        0.449746622760280    0.030079690315069    0.877594067560883  0.0000
  Ge     Ge        0.047552544275307    0.985639813232742    0.881799828945025  0.0000
  Ge     Ge        0.173983613654637    0.285459185346718    0.262014462463599  0.0000
  Ge     Ge        0.331835360014742    0.754921667056877    0.263281642430746  0.0000
  Ge     Ge        0.836931671776072    0.324446536904533    0.707421172489215  0.0000
  Ge     Ge        0.654076543052370    0.725023074096106    0.704316291014464  0.0000
  Ge     Ge        0.838031728981971    0.730901376500547    0.698129785672774  0.0000
  Ge     Ge        0.149108923724477    0.685765762644617    0.262216062687058  0.0000
  Ge     Ge        0.356895609257730    0.353236491577355    0.262670035573246  0.0000
  Ge     Ge        0.657819913160004    0.353087674483076    0.023402895516872  0.0000
  Ge     Ge        0.353666189045789    0.348714991993556    0.950706562996530  0.0000
  Ge     Ge        0.145941050509546    0.673414986623095    0.949312522686093  0.0000
  Ge     Ge        0.327975843049324    0.748424182536383    0.951491547079562  0.0000
  Ge     Ge        0.171693939922608    0.274261128691422    0.950764183029665  0.0000
  Ge     Ge        0.845976711574040    0.358248770967616    0.019951806124009  0.0000
  Si     Si        0.552511431924970    0.018557017485910    0.630827928806308  0.0000
  Si     Si        0.655667027968671    0.323523139291880    0.717373520538859  0.0000
  Si     Si        0.841284868550448    0.744319113692531    0.996193902339565  0.0000
  Si     Si        0.659365097262532    0.736917477548741    0.000165465199636  0.0000
  O1     O1        0.124497456318548    0.142056413264352    0.348304067885703  0.0000
  O1     O1        0.381194369412745    0.904124311114244    0.354511862223975  0.0000
  O1     O1        0.887598900555699    0.196563721874750    0.607093974960122  0.0000
  O3     O3        0.600981242610670    0.850024453961816    0.604046989907623  0.0000
  O1     O1        0.893210394520777    0.845476578398535    0.598678122450119  0.0000
  O2     O2        0.604755370567076    0.189981575820196    0.630612408422085  0.0000
  O1     O1        0.084115593619969    0.798437318760265    0.349300106706761  0.0000
  O1     O1        0.424543726920058    0.245077802785568    0.345264786881394  0.0000
  O1     O1        0.025395755678039    0.029455185414343    0.530034818369095  0.0000
  O3     O3        0.483831441308345    0.035634321115510    0.532217097209572  0.0000
  O1     O1        0.969386164002549    0.029275070551522    0.285036041991436  0.0000
  O1     O1        0.533040139079023    0.999186922314014    0.279742416606288  0.0000
  O1     O1        0.975320239081951    0.034819850275495    0.782046812403727  0.0000
  O3     O3        0.521342835839335    0.994317964766798    0.772858017754873  0.0000
  O1     O1        0.602149395173758    0.231086485602714    0.116146112887190  0.0000
  O3     O3        0.865672086835906    0.902238309184869    0.086456688373057  0.0000
  O1     O1        0.416045323171494    0.230820243326951    0.862608601958012  0.0000
  O1     O1        0.081531259458140    0.783877708496114    0.861058771354313  0.0000
  O1     O1        0.375201211007435    0.886867152285391    0.858307544353874  0.0000
  O1     O1        0.122670669120931    0.125364349941570    0.860907984296359  0.0000
  O3     O3        0.636600580344437    0.892912272082262    0.090117744584967  0.0000
  O1     O1        0.904227819013019    0.243183845715591    0.114509468756415  0.0000
  O1     O1        0.484555116618662    0.002549840439755    0.030961486856367  0.0000
  O1     O1        0.018430203783438    0.005942038759242    0.039129348582728  0.0000
  O1     O1        0.160275141634493    0.488374398290676    0.321886490286932  0.0000
  O1     O1        0.346722213197935    0.556283610462981    0.321350045781267  0.0000
  O1     O1        0.843316789464049    0.523511202967931    0.650774450336527  0.0000
  O3     O3        0.648468749685289    0.510539093230022    0.662712900706147  0.0000
  O1     O1        0.270169139135700    0.247431745787908    0.266883534890709  0.0000
  O1     O1        0.235690862728958    0.792162390495070    0.266472293959992  0.0000
  O3     O3        0.742061898439000    0.262424290953096    0.712841201938090  0.0000
  O1     O1        0.745694950831726    0.796188829578878    0.688549451791232  0.0000
  O1     O1        0.140467498311169    0.272904301449608    0.106617340902244  0.0000
  O1     O1        0.361625490484306    0.761557623457790    0.107598279118448  0.0000
  O1     O1        0.869897233803542    0.319034121754230    0.863183471885005  0.0000
  O3     O3        0.620991875485309    0.749366792827974    0.860063690115959  0.0000
  O3     O3        0.875255046996639    0.761153725029202    0.854847228179861  0.0000
  O3     O3        0.629252213350773    0.320870439317503    0.864237016245352  0.0000
  O1     O1        0.117184895639292    0.665507471146429    0.105948627703802  0.0000
  O1     O1        0.386447713202266    0.363171701745621    0.107040493678078  0.0000
  O3     O3        0.637691621529936    0.562193841301414    0.064723077925616  0.0000
  O3     O3        0.866344527886753    0.570575857539978    0.057623985652818  0.0000
  O1     O1        0.341921781906696    0.544499451386213    0.891892032046501  0.0000
  O1     O1        0.156151919524876    0.471944429686762    0.889849130044759  0.0000
  O1     O1        0.752012267574296    0.308592139517809    0.046198476338276  0.0000
  O2     O2        0.749888115501662    0.725827468806360    0.969721692117238  0.0000
  O1     O1        0.267620337887724    0.239847583465459    0.952499972150274  0.0000
  O1     O1        0.231944635700258    0.783068573641412    0.950646673296604  0.0000
