data_c00720.vasp
_audit_creation_method             Generated by GULP
_audit_author_name                 Salvador R. G. Balestra
_symmetry_space_group_name_H-M     'P 1             '
_symmetry_Int_Tables_number        1

loop_
_symmetry_equiv_pos_site_id
_symmetry_equiv_pos_as_xyz
_cell_length_a                       17.6981
_cell_length_b                        7.8019
_cell_length_c                       10.1509
_cell_angle_alpha                   91.1660
_cell_angle_beta                    89.8232
_cell_angle_gamma                   90.7737

loop_
_atom_site_label
_atom_site_type_symbol
_atom_site_fract_x
_atom_site_fract_y
_atom_site_fract_z
_atom_site_charge
  Ge     Ge        0.052090000000021    0.000000000000000    0.372269999999958  0.0000
  Ge     Ge        0.442794795501106    0.055860216121718    0.348778231257403  0.0000
  Ge     Ge        0.947997395873296    0.028597857973783    0.626628445347318  0.0000
  Ge     Ge        0.545085340162703    0.990475952030641    0.090206991165765  0.0000
  Ge     Ge        0.940344680485870    0.049697454064911    0.135424430023330  0.0000
  Ge     Ge        0.441780208952430    0.038076303530986    0.832672483621157  0.0000
  Ge     Ge        0.050511806948292    0.979275784118115    0.888170728824954  0.0000
  Ge     Ge        0.167218758187083    0.296174247214268    0.267829579088380  0.0000
  Ge     Ge        0.320510632378829    0.775772094650432    0.264341458625120  0.0000
  Ge     Ge        0.847052503505131    0.348094209907792    0.690188420741707  0.0000
  Ge     Ge        0.639834506061999    0.681749563015402    0.699495693330154  0.0000
  Ge     Ge        0.820940019881493    0.752469106401290    0.693736774170155  0.0000
  Ge     Ge        0.666133415683067    0.277002399467675    0.695742741219542  0.0000
  Ge     Ge        0.347638473412576    0.368599909562012    0.270773347529996  0.0000
  Ge     Ge        0.669314963034654    0.272429506699055    0.016179258740690  0.0000
  Ge     Ge        0.819900556874168    0.763306090477069    0.013756992110432  0.0000
  Ge     Ge        0.324044097058158    0.747909664908809    0.941272201898958  0.0000
  Ge     Ge        0.169520996755369    0.276814825920007    0.952237871260678  0.0000
  Ge     Ge        0.642551208734060    0.675638309096169    0.019883313472810  0.0000
  Ge     Ge        0.847217162532731    0.356839051638031    0.011895715508835  0.0000
  Si     Si        0.548364596454825    0.992660087707980    0.588050663160252  0.0000
  Si     Si        0.147813517856763    0.691759787595078    0.252743431916798  0.0000
  Si     Si        0.347290080755016    0.346781515131573    0.958187339960083  0.0000
  Si     Si        0.151384119326334    0.668425919317708    0.938428003264078  0.0000
  O1     O1        0.119555256494252    0.158130722129015    0.368100527106467  0.0000
  O1     O1        0.366461898295359    0.919316884518351    0.365055346256192  0.0000
  O1     O1        0.913550410148452    0.231518194090929    0.605843563068817  0.0000
  O3     O3        0.572147809979973    0.800098411247529    0.619802661087665  0.0000
  O1     O1        0.872676870146629    0.890235493317099    0.600250208730779  0.0000
  O3     O3        0.619083549099190    0.120315105555839    0.604780701613644  0.0000
  O3     O3        0.079352627163966    0.801561856316706    0.308412707124680  0.0000
  O1     O1        0.411352956112199    0.261809376875197    0.365163970338617  0.0000
  O1     O1        0.025918854012439    0.980480729165442    0.535007384516254  0.0000
  O3     O3        0.521106427831069    0.002632682339913    0.436860482944779  0.0000
  O1     O1        0.969339396399080    0.052651422961431    0.296737918980800  0.0000
  O1     O1        0.469097301949326    0.032044901316510    0.185118828595935  0.0000
  O1     O1        0.975231711838512    0.009652692961590    0.789542303782841  0.0000
  O3     O3        0.475131726965628    0.050346260429528    0.672057726974553  0.0000
  O1     O1        0.618422514423777    0.135764703682333    0.111602937355861  0.0000
  O1     O1        0.865607117325149    0.910833071421116    0.112159016604361  0.0000
  O3     O3        0.405765856685627    0.237657920111714    0.872461261342598  0.0000
  O3     O3        0.085367065380887    0.771291064287280    0.871719185119793  0.0000
  O1     O1        0.373228980271569    0.880509110670038    0.840320511896254  0.0000
  O1     O1        0.121893009340089    0.126828314658276    0.859341452313539  0.0000
  O1     O1        0.578624112363898    0.787199843970436    0.112877985184883  0.0000
  O1     O1        0.914934498866693    0.254697294854922    0.098351315741057  0.0000
  O1     O1        0.517757336625029    0.994158217981694    0.926820009612068  0.0000
  O1     O1        0.019166479065897    0.991454316975093    0.047861411456808  0.0000
  O3     O3        0.152197487105188    0.507999425215345    0.319884802072785  0.0000
  O1     O1        0.340463916924005    0.575572774759988    0.322322816860844  0.0000
  O1     O1        0.834798173606170    0.548228857664478    0.630209781019216  0.0000
  O1     O1        0.649021761858761    0.477376743726846    0.634377864373957  0.0000
  O1     O1        0.262227846246131    0.261501376044808    0.277438045781078  0.0000
  O3     O3        0.223751163214834    0.804478345282709    0.276064594179884  0.0000
  O1     O1        0.761280024224841    0.239588661675644    0.688603559524124  0.0000
  O1     O1        0.725387192173761    0.788576846340288    0.691740335725842  0.0000
  O1     O1        0.135807753845650    0.256253598021173    0.110323417484619  0.0000
  O1     O1        0.348287325993351    0.792950166107599    0.102047844161148  0.0000
  O1     O1        0.875763393937499    0.371970031535235    0.851174879543402  0.0000
  O1     O1        0.612312708294150    0.653392153169245    0.858934943345597  0.0000
  O1     O1        0.852208419435326    0.771770162351720    0.854324668727384  0.0000
  O1     O1        0.636675250213876    0.263898492924893    0.856380631505186  0.0000
  O2     O2        0.142197073476668    0.644636629583555    0.096869748863058  0.0000
  O3     O3        0.376877140719597    0.367356019337774    0.107075250141824  0.0000
  O1     O1        0.657409683216461    0.477724837790032    0.080353581341915  0.0000
  O1     O1        0.833163421009118    0.559744025985462    0.072985148042314  0.0000
  O3     O3        0.340272172501181    0.534900174919148    0.899365826628927  0.0000
  O3     O3        0.153844943052998    0.475590904955629    0.882758827949578  0.0000
  O1     O1        0.764510055054124    0.236064494584398    0.016229226319260  0.0000
  O1     O1        0.724593481224911    0.797801107071346    0.013989127739894  0.0000
  O3     O3        0.266229640018924    0.248279322693298    0.957559601934612  0.0000
  O3     O3        0.228351125681566    0.776551603787616    0.917631088003604  0.0000
