data_c00791.vasp
_audit_creation_method             Generated by GULP
_audit_author_name                 Salvador R. G. Balestra
_symmetry_space_group_name_H-M     'P 1             '
_symmetry_Int_Tables_number        1

loop_
_symmetry_equiv_pos_site_id
_symmetry_equiv_pos_as_xyz
_cell_length_a                       17.7527
_cell_length_b                        7.8517
_cell_length_c                       10.3820
_cell_angle_alpha                   89.6706
_cell_angle_beta                    90.2063
_cell_angle_gamma                   89.8928

loop_
_atom_site_label
_atom_site_type_symbol
_atom_site_fract_x
_atom_site_fract_y
_atom_site_fract_z
_atom_site_charge
  Ge     Ge        0.052090000000021    0.000000000000000    0.372269999999958  0.0000
  Ge     Ge        0.453445270495541    0.966801976158944    0.409312632862469  0.0000
  Ge     Ge        0.944846273501970    0.002732606850667    0.620266657254618  0.0000
  Ge     Ge        0.561377756079535    0.986699108390681    0.160684636665537  0.0000
  Ge     Ge        0.952660562541779    0.005861281553174    0.111700666816974  0.0000
  Ge     Ge        0.450280203521051    0.984795008244332    0.914630012051426  0.0000
  Ge     Ge        0.058928937227585    0.013221522493636    0.861550971867472  0.0000
  Ge     Ge        0.152299044487116    0.313263329740247    0.292068062294703  0.0000
  Ge     Ge        0.353104103924668    0.660013660881219    0.299669241994251  0.0000
  Ge     Ge        0.846459303936477    0.317025255735821    0.731203277408154  0.0000
  Ge     Ge        0.653227530542589    0.679464477032941    0.733266111880660  0.0000
  Ge     Ge        0.663721667365085    0.273451857554867    0.734692875541234  0.0000
  Ge     Ge        0.174166412925023    0.721955106576253    0.300159261587339  0.0000
  Ge     Ge        0.331997520093470    0.250866278526383    0.291260307782476  0.0000
  Ge     Ge        0.672305310780626    0.278241515685001    0.044566971250233  0.0000
  Ge     Ge        0.829442729324479    0.726942323854771    0.041157544528569  0.0000
  Ge     Ge        0.333101862086844    0.273115143635029    0.979549730793581  0.0000
  Ge     Ge        0.176022573129142    0.733190918923571    0.987320506254152  0.0000
  Ge     Ge        0.151546883775803    0.327842354031911    0.977429861090767  0.0000
  Ge     Ge        0.854049097542752    0.324122773875860    0.041490322136464  0.0000
  Si     Si        0.551400673168198    0.985231332568577    0.661919694670845  0.0000
  Si     Si        0.830233560422769    0.717312325676457    0.734601791411826  0.0000
  Si     Si        0.353086135288611    0.671622288396957    0.993505350616641  0.0000
  Si     Si        0.653700146530777    0.678379950121931    0.040234323140286  0.0000
  O1     O1        0.090248640297871    0.200001004954359    0.385097310552000  0.0000
  O1     O1        0.419642581740921    0.764499890755110    0.387662966175734  0.0000
  O1     O1        0.905492866499529    0.200906678420243    0.635953308225337  0.0000
  O3     O3        0.594452957804202    0.806298711763665    0.642400426713597  0.0000
  O3     O3        0.878599975796708    0.848176758542397    0.651192056447767  0.0000
  O3     O3        0.610725378089080    0.137483944124007    0.640933535821897  0.0000
  O1     O1        0.121788293002579    0.850854667286323    0.397565086991511  0.0000
  O1     O1        0.381840480708218    0.109053025726112    0.382862250698712  0.0000
  O1     O1        0.973444385336409    0.976941935564428    0.463625839541683  0.0000
  O3     O3        0.480440218593919    0.996633432524080    0.568744962038009  0.0000
  O1     O1        0.024895640563561    0.969012109921430    0.213935600109528  0.0000
  O1     O1        0.531953056911435    0.995034107298717    0.317318621516847  0.0000
  O1     O1        0.027194118046191    0.985851843005896    0.706960941680680  0.0000
  O3     O3        0.524127368169649    0.994390020366092    0.809575042219208  0.0000
  O1     O1        0.628168909965976    0.142819506462349    0.147649347143578  0.0000
  O1     O1        0.876782140713719    0.870093217116416    0.130757845791573  0.0000
  O1     O1        0.384014959670581    0.140512870236186    0.883260288286269  0.0000
  O1     O1        0.135588339487861    0.884339125443300    0.891518714907773  0.0000
  O3     O3        0.409399737698129    0.784523294974644    0.909025122847424  0.0000
  O1     O1        0.087580259767662    0.219774926075831    0.885998648667962  0.0000
  O3     O3        0.595306214291982    0.785693224031331    0.123216095402943  0.0000
  O1     O1        0.917456156210463    0.208371332471807    0.130203240493921  0.0000
  O1     O1        0.484621436386392    0.026607482179257    0.065604796696230  0.0000
  O1     O1        0.984083261967534    0.965390585326845    0.958325522921920  0.0000
  O1     O1        0.162944684574378    0.513854932427756    0.350597179876332  0.0000
  O1     O1        0.343365469172159    0.454471487588001    0.350646148826291  0.0000
  O3     O3        0.839209209400563    0.526845753098749    0.679491839621109  0.0000
  O1     O1        0.651415467817959    0.477241563460475    0.675648432404320  0.0000
  O1     O1        0.237413867255469    0.206622885885052    0.292258064809007  0.0000
  O1     O1        0.268574154104457    0.766569129099891    0.309965269121486  0.0000
  O1     O1        0.758127746097017    0.227959006605426    0.728791563390038  0.0000
  O3     O3        0.742521157428926    0.767476874785661    0.728560816221268  0.0000
  O1     O1        0.121184183022114    0.322316036519009    0.134792460322432  0.0000
  O3     O3        0.382686647280948    0.658695432890123    0.140054647132998  0.0000
  O1     O1        0.883654793654122    0.312704472999629    0.883457952228145  0.0000
  O3     O3        0.625387286053213    0.669905986108140    0.892962058474161  0.0000
  O3     O3        0.858417158898192    0.721721109685297    0.881635690059298  0.0000
  O1     O1        0.635283298770900    0.259187653628625    0.892481334810467  0.0000
  O1     O1        0.143919970103051    0.741508984087818    0.142786040837157  0.0000
  O1     O1        0.363203305408255    0.244532587499877    0.135485735504573  0.0000
  O3     O3        0.662646376981351    0.488313930686248    0.095383033899656  0.0000
  O1     O1        0.848511501259987    0.525926390028003    0.099722086528581  0.0000
  O3     O3        0.345111034237034    0.485023414775558    0.933691579596284  0.0000
  O1     O1        0.157000793868554    0.534918459777855    0.925830326209003  0.0000
  O1     O1        0.766255551406156    0.231852030527365    0.041358197580728  0.0000
  O3     O3        0.734418294415332    0.772200798072805    0.044807807695310  0.0000
  O1     O1        0.238679262568840    0.231865404434819    0.969731680070481  0.0000
  O3     O3        0.272235766001190    0.765210567259711    0.996071071140066  0.0000
