data_c00732.vasp
_audit_creation_method             Generated by GULP
_audit_author_name                 Salvador R. G. Balestra
_symmetry_space_group_name_H-M     'P 1             '
_symmetry_Int_Tables_number        1

loop_
_symmetry_equiv_pos_site_id
_symmetry_equiv_pos_as_xyz
_cell_length_a                       17.5323
_cell_length_b                        7.8362
_cell_length_c                       10.2358
_cell_angle_alpha                   90.2276
_cell_angle_beta                    89.8735
_cell_angle_gamma                   88.1377

loop_
_atom_site_label
_atom_site_type_symbol
_atom_site_fract_x
_atom_site_fract_y
_atom_site_fract_z
_atom_site_charge
  Ge     Ge        0.052090000000021    0.000000000000000    0.372269999999958  0.0000
  Ge     Ge        0.444856780921440    0.955290648875264    0.381760056675848  0.0000
  Ge     Ge        0.945113861821967    0.943258629763529    0.620365172182293  0.0000
  Ge     Ge        0.555268134031136    0.003150717753599    0.135194617111309  0.0000
  Ge     Ge        0.941312208269037    0.939258350753550    0.130030027380342  0.0000
  Ge     Ge        0.445986765349916    0.949807348994498    0.885608231426252  0.0000
  Ge     Ge        0.046068703806593    0.005926177154357    0.877832241017121  0.0000
  Ge     Ge        0.139877374974202    0.321051719309702    0.258654771265463  0.0000
  Ge     Ge        0.351423929934024    0.640919760657307    0.265709241082902  0.0000
  Ge     Ge        0.821534203497507    0.231419360098837    0.693400212455742  0.0000
  Ge     Ge        0.661729038193608    0.717222307984516    0.705928955055986  0.0000
  Ge     Ge        0.844013059387478    0.634575718417731    0.693734347914438  0.0000
  Ge     Ge        0.640547500252214    0.311799841043832    0.700910687832145  0.0000
  Ge     Ge        0.322552567650223    0.241887247753211    0.265704794086568  0.0000
  Ge     Ge        0.852249430238435    0.623683182476172    0.010928472765158  0.0000
  Ge     Ge        0.171106790897288    0.715216519340680    0.948476290666448  0.0000
  Ge     Ge        0.352040356699489    0.633161142465886    0.950005841904483  0.0000
  Ge     Ge        0.146786993396633    0.315231012464048    0.942461656718442  0.0000
  Ge     Ge        0.669373948034456    0.705154569171602    0.020589848950078  0.0000
  Ge     Ge        0.821698979146998    0.224700405553747    0.010616117769106  0.0000
  Si     Si        0.544345411753383    0.006001041290124    0.632504322834216  0.0000
  Si     Si        0.170177282816084    0.713392697422947    0.258322304302499  0.0000
  Si     Si        0.643557058008163    0.310651047279240    0.010599756693766  0.0000
  Si     Si        0.325174927446104    0.239112352274287    0.955239778674878  0.0000
  O1     O1        0.075530818984711    0.208127744928453    0.347267218243676  0.0000
  O1     O1        0.415468820909173    0.751387012587664    0.355685487731159  0.0000
  O1     O1        0.873455021729979    0.095100553073996    0.594813307128832  0.0000
  O3     O3        0.611307829044492    0.862525710171357    0.610073486343270  0.0000
  O1     O1        0.906900010516644    0.746043025604015    0.601058092567157  0.0000
  O3     O3        0.576146679311792    0.194410853325718    0.612820975242074  0.0000
  O3     O3        0.128956329837936    0.863039472656191    0.341243225598119  0.0000
  O1     O1        0.366702887452497    0.086274695364196    0.355627547291869  0.0000
  O1     O1        0.026001781931902    0.976004490138724    0.533501814062665  0.0000
  O3     O3        0.471725402056619    0.972304248944600    0.544753781901979  0.0000
  O1     O1        0.970656641007050    0.949301072017437    0.289535892540018  0.0000
  O1     O1        0.522972693179849    0.011388803980256    0.293616008849908  0.0000
  O1     O1        0.970130314114331    0.962475242177542    0.783611861884973  0.0000
  O3     O3        0.520339585265434    0.994485508779136    0.784888790266778  0.0000
  O3     O3        0.583922196363008    0.205458470755558    0.093390185709130  0.0000
  O1     O1        0.919794384270328    0.731638314896861    0.094659440851541  0.0000
  O3     O3        0.371525884980106    0.100355062658984    0.869930166851180  0.0000
  O1     O1        0.119460806715441    0.856710552040132    0.857643860503638  0.0000
  O1     O1        0.412871768430124    0.748621411154748    0.856856179107273  0.0000
  O1     O1        0.085725937494956    0.200932320149805    0.849583543021226  0.0000
  O1     O1        0.626984007639605    0.849576832996226    0.124946433008088  0.0000
  O1     O1        0.860775568307038    0.066648603627674    0.104765712733801  0.0000
  O1     O1        0.478408874476589    0.949211855446167    0.043525998874517  0.0000
  O1     O1        0.015964111839838    0.007503836442061    0.038368892334360  0.0000
  O3     O3        0.150132895645311    0.528293486810024    0.315836058763669  0.0000
  O1     O1        0.343928353629041    0.439388356530003    0.326648905454460  0.0000
  O1     O1        0.831095672908305    0.435138288818824    0.632964575233165  0.0000
  O1     O1        0.647153833439132    0.514839624795864    0.643850858754099  0.0000
  O1     O1        0.226641259845662    0.214746913545415    0.271155191196582  0.0000
  O3     O3        0.260632016020856    0.737791761969344    0.261495150957424  0.0000
  O1     O1        0.725489402598699    0.196853836117067    0.692760938331959  0.0000
  O1     O1        0.758043781178111    0.748997130442033    0.700698169188736  0.0000
  O1     O1        0.111403705512528    0.327226853398880    0.099539469039605  0.0000
  O1     O1        0.384157561530017    0.630478789449194    0.108067675466334  0.0000
  O1     O1        0.854060125000921    0.212919676397185    0.851987611208013  0.0000
  O1     O1        0.632598437991350    0.733879749377729    0.866416305830144  0.0000
  O1     O1        0.878740968347447    0.609477511968249    0.849646896081265  0.0000
  O3     O3        0.613700190040312    0.336418390349604    0.863384740134489  0.0000
  O3     O3        0.139681846173040    0.722434345188844    0.110042859733442  0.0000
  O3     O3        0.354283644709601    0.232763277517553    0.104647846663425  0.0000
  O3     O3        0.655032586756656    0.496703135218059    0.072424835054222  0.0000
  O1     O1        0.844136497496214    0.421603807748627    0.072077394891706  0.0000
  O3     O3        0.339487407445656    0.427319175409894    0.896496486771616  0.0000
  O1     O1        0.155699047671641    0.515251649124438    0.883689602658549  0.0000
  O3     O3        0.723725976690632    0.204184423212343    0.006807293011962  0.0000
  O1     O1        0.765570349274689    0.733170345118493    0.018114405473138  0.0000
  O3     O3        0.235245374589857    0.207766276084254    0.952621809429198  0.0000
  O1     O1        0.266366285439254    0.747205049476360    0.945812544443058  0.0000
