data_c00770.vasp
_audit_creation_method             Generated by GULP
_audit_author_name                 Salvador R. G. Balestra
_symmetry_space_group_name_H-M     'P 1             '
_symmetry_Int_Tables_number        1

loop_
_symmetry_equiv_pos_site_id
_symmetry_equiv_pos_as_xyz
_cell_length_a                       17.6299
_cell_length_b                        7.8231
_cell_length_c                       10.1739
_cell_angle_alpha                   89.2230
_cell_angle_beta                    91.1840
_cell_angle_gamma                   91.1881

loop_
_atom_site_label
_atom_site_type_symbol
_atom_site_fract_x
_atom_site_fract_y
_atom_site_fract_z
_atom_site_charge
  Ge     Ge        0.052090000000021    0.000000000000000    0.372269999999958  0.0000
  Ge     Ge        0.446109324941816    0.053014692215314    0.373287840761231  0.0000
  Ge     Ge        0.941412492666427    0.054396798607914    0.614988477853589  0.0000
  Ge     Ge        0.553813157666236    0.988680262750913    0.128990177371108  0.0000
  Ge     Ge        0.941717994473987    0.043807092181820    0.121946768533129  0.0000
  Ge     Ge        0.446893682158944    0.057462633924894    0.872829713228094  0.0000
  Ge     Ge        0.044950262240962    0.992977964777272    0.872498427918259  0.0000
  Ge     Ge        0.173169271461135    0.284681720358144    0.261482526560904  0.0000
  Ge     Ge        0.326630623465877    0.758795003498949    0.262428195553678  0.0000
  Ge     Ge        0.840407384543366    0.365546845828436    0.679851732760178  0.0000
  Ge     Ge        0.639060580026476    0.696512272411226    0.700384230789792  0.0000
  Ge     Ge        0.822096403911363    0.766849672646472    0.693941096200702  0.0000
  Ge     Ge        0.145100645933303    0.684754264030154    0.259492909771923  0.0000
  Ge     Ge        0.673947164657818    0.276411529332604    0.006331134553632  0.0000
  Ge     Ge        0.825723593683881    0.748908146008783    0.009155253737394  0.0000
  Ge     Ge        0.347866778836310    0.366571975475190    0.942541988674419  0.0000
  Ge     Ge        0.145558850740634    0.682098806856150    0.937983472148970  0.0000
  Ge     Ge        0.323864891277166    0.772287708883230    0.944800920456625  0.0000
  Ge     Ge        0.170197893512990    0.278616441496897    0.942899208765607  0.0000
  Ge     Ge        0.642772066051879    0.675540928220788    0.015280879958733  0.0000
  Si     Si        0.548492698835061    0.014861054268125    0.626954107677108  0.0000
  Si     Si        0.663920696911535    0.302109813475951    0.691034366470265  0.0000
  Si     Si        0.350346181767313    0.361337777801823    0.255366984790355  0.0000
  Si     Si        0.849415907716295    0.352000178211951    0.995828995060410  0.0000
  O1     O1        0.130685341405594    0.130079546744926    0.356124822658583  0.0000
  O1     O1        0.377182572199690    0.896763200772408    0.361111567954936  0.0000
  O1     O1        0.903478939130805    0.253697076834535    0.591796454638190  0.0000
  O3     O3        0.581976999529993    0.828438685264360    0.603123952311556  0.0000
  O1     O1        0.868044412958079    0.909030090451127    0.592985733850990  0.0000
  O2     O2        0.613690335951367    0.163188323846774    0.609147513144797  0.0000
  O1     O1        0.077320292719786    0.794460420190882    0.340087029795548  0.0000
  O3     O3        0.411972721679680    0.253873600606596    0.337140037000155  0.0000
  O1     O1        0.021434006417912    0.014042904297736    0.531990172038753  0.0000
  O3     O3        0.475843064225534    0.053971307001778    0.537778613651804  0.0000
  O1     O1        0.973587521279282    0.061789266559762    0.282072122405775  0.0000
  O1     O1        0.526167202149249    0.012889208377318    0.288045633304004  0.0000
  O1     O1        0.967384630611891    0.039065414318508    0.779748114732987  0.0000
  O3     O3        0.523613937973074    0.017705592811154    0.778990340019114  0.0000
  O1     O1        0.632411118244197    0.113239805217572    0.090435424520642  0.0000
  O1     O1        0.871570699028084    0.888993252318488    0.112820779750283  0.0000
  O1     O1        0.413369175086255    0.261323604450383    0.854518302184192  0.0000
  O1     O1        0.080644473405432    0.792944741684037    0.845851088596070  0.0000
  O1     O1        0.373795974490403    0.911976285510501    0.848013031439845  0.0000
  O1     O1        0.117407900705675    0.141104080256866    0.849119657703512  0.0000
  O1     O1        0.580102187075412    0.780475853698009    0.109584793760349  0.0000
  O3     O3        0.914109038194453    0.245509294572547    0.069310658822010  0.0000
  O1     O1        0.476781261029624    0.042844649262643    0.034685432472418  0.0000
  O1     O1        0.019360827061030    0.988780145148687    0.035409527473770  0.0000
  O1     O1        0.154515243380302    0.481720407177028    0.324033768018233  0.0000
  O3     O3        0.339837583879619    0.548181821360883    0.315069076889058  0.0000
  O1     O1        0.835548366346780    0.569930232286596    0.624327524338788  0.0000
  O3     O3        0.647439983694235    0.493155445848270    0.636574881995802  0.0000
  O3     O3        0.270431890214030    0.257011536591197    0.257717928800028  0.0000
  O1     O1        0.231081254741884    0.794007040377856    0.268829550304168  0.0000
  O3     O3        0.752006639749129    0.262674680815204    0.673933160046944  0.0000
  O1     O1        0.726777020535757    0.795895172101216    0.705428321479455  0.0000
  O1     O1        0.139520890107794    0.264896791018836    0.102624326185339  0.0000
  O1     O1        0.357412702129664    0.788474193718842    0.104879895703469  0.0000
  O3     O3        0.869075323272399    0.378530053006967    0.843465496089942  0.0000
  O1     O1        0.606110070195559    0.678048317536065    0.856499737017802  0.0000
  O1     O1        0.858504012290233    0.780717894787736    0.852678910956397  0.0000
  O3     O3        0.642812083094734    0.292510242718337    0.843974437530534  0.0000
  O1     O1        0.118089474806524    0.657378808694583    0.098611472114036  0.0000
  O3     O3        0.376734525520986    0.386434525054778    0.106232911408280  0.0000
  O1     O1        0.652605829354100    0.469919274576938    0.072694761213287  0.0000
  O3     O3        0.841490503225373    0.537778609177555    0.058572124363118  0.0000
  O1     O1        0.335320277975629    0.568610956702497    0.884639724846995  0.0000
  O1     O1        0.159292972326598    0.483288218019815    0.878928027986116  0.0000
  O3     O3        0.770642554802291    0.244769976001421    0.008545667261595  0.0000
  O1     O1        0.730057091140692    0.778185623141505    0.013405530304354  0.0000
  O1     O1        0.265762304076344    0.242992984104393    0.939280443965623  0.0000
  O1     O1        0.228382111193601    0.805330787936836    0.942760379732870  0.0000
