data_c00709.vasp
_audit_creation_method             Generated by GULP
_audit_author_name                 Salvador R. G. Balestra
_symmetry_space_group_name_H-M     'P 1             '
_symmetry_Int_Tables_number        1

loop_
_symmetry_equiv_pos_site_id
_symmetry_equiv_pos_as_xyz
_cell_length_a                       17.6347
_cell_length_b                        7.8182
_cell_length_c                       10.2179
_cell_angle_alpha                   90.0666
_cell_angle_beta                    90.0234
_cell_angle_gamma                   91.1692

loop_
_atom_site_label
_atom_site_type_symbol
_atom_site_fract_x
_atom_site_fract_y
_atom_site_fract_z
_atom_site_charge
  Ge     Ge        0.052090000000021    0.000000000000000    0.372269999999958  0.0000
  Ge     Ge        0.444615783901446    0.050009570874125    0.352710206939914  0.0000
  Ge     Ge        0.945251908050282    0.033402268846316    0.624090702318140  0.0000
  Ge     Ge        0.549561627106209    0.974614505386305    0.098385006862710  0.0000
  Ge     Ge        0.941286681959089    0.034608514571145    0.128956593756018  0.0000
  Ge     Ge        0.445441512008715    0.036852131059277    0.843889530538722  0.0000
  Ge     Ge        0.049631949689970    0.985173174722528    0.880615771827920  0.0000
  Ge     Ge        0.169138012024375    0.296046624696881    0.267708932105582  0.0000
  Ge     Ge        0.321586011845209    0.769386310551019    0.266439221158874  0.0000
  Ge     Ge        0.844921905888483    0.345717365944146    0.692588347317125  0.0000
  Ge     Ge        0.639947290466706    0.674345502266920    0.711068752568346  0.0000
  Ge     Ge        0.821458847168963    0.750636931330090    0.701488910288599  0.0000
  Ge     Ge        0.665058973847259    0.269917409974362    0.702670267031705  0.0000
  Ge     Ge        0.351480612843500    0.367448017483778    0.277578577391625  0.0000
  Ge     Ge        0.672160059398662    0.259720833438138    0.021002457970747  0.0000
  Ge     Ge        0.825176713700464    0.737901315509925    0.016912862717607  0.0000
  Ge     Ge        0.353692507400343    0.354210936676499    0.962720814632978  0.0000
  Ge     Ge        0.152378043427877    0.675575542623140    0.941799977462436  0.0000
  Ge     Ge        0.172492353191481    0.274183452875635    0.953204542907027  0.0000
  Ge     Ge        0.644867023938869    0.659033196849095    0.028961574756272  0.0000
  Si     Si        0.547105909087791    0.982880054519946    0.596967397722596  0.0000
  Si     Si        0.145880904322973    0.690967392023861    0.254593407232880  0.0000
  Si     Si        0.327299376367405    0.754738039831704    0.955198334015166  0.0000
  Si     Si        0.848073039107003    0.339203170224234    0.005142047214147  0.0000
  O1     O1        0.121326640720437    0.155721742673446    0.367489135586393  0.0000
  O1     O1        0.365931181942840    0.916497376016491    0.363297638159046  0.0000
  O1     O1        0.910690892291469    0.236259437147528    0.604842577328792  0.0000
  O3     O3        0.572935176012281    0.792110284490157    0.628985024972525  0.0000
  O1     O1        0.870500894995273    0.890919218494669    0.603881604086239  0.0000
  O3     O3        0.616131499025171    0.116971818075805    0.613535179928072  0.0000
  O3     O3        0.081828439528584    0.799551127178634    0.324985281055550  0.0000
  O1     O1        0.413472086679326    0.253914584197902    0.373033922359667  0.0000
  O1     O1        0.022694440118583    0.988027655767046    0.533185595324017  0.0000
  O3     O3        0.520272977675649    0.991575602112459    0.446344859312630  0.0000
  O1     O1        0.971495504731932    0.052029409627848    0.288336377806237  0.0000
  O1     O1        0.475022829761535    0.026402059510821    0.192649775102493  0.0000
  O1     O1        0.973062029651935    0.020628119674319    0.786369198722225  0.0000
  O3     O3        0.473870648443252    0.032805380415257    0.681473287240752  0.0000
  O1     O1        0.626971703940362    0.112408773288877    0.116175217465850  0.0000
  O1     O1        0.872636355794413    0.876578745569391    0.118471340110020  0.0000
  O1     O1        0.416626606924760    0.242680986672652    0.870772018512735  0.0000
  O1     O1        0.088298082674473    0.786582600994676    0.854271077741864  0.0000
  O3     O3        0.371880568312093    0.890071626672989    0.865879783284146  0.0000
  O1     O1        0.122802684436705    0.131776780297648    0.858960367071309  0.0000
  O1     O1        0.581908980259997    0.771148480346578    0.121603423153180  0.0000
  O3     O3        0.910649538483634    0.234860315132229    0.082048226819589  0.0000
  O1     O1        0.521892179979218    0.987834081295191    0.936302057818364  0.0000
  O1     O1        0.020418167993258    0.985787993397570    0.041349885853862  0.0000
  O3     O3        0.155503816480067    0.505741279232612    0.320142006875077  0.0000
  O1     O1        0.341824726753491    0.571790153172679    0.330761621798272  0.0000
  O1     O1        0.834214074145395    0.548637965769357    0.637319710881375  0.0000
  O1     O1        0.648652196451518    0.473316288981436    0.644988757282374  0.0000
  O1     O1        0.264663453325170    0.262376078271401    0.273963858951236  0.0000
  O3     O3        0.224860400573890    0.799265546814888    0.265281150347815  0.0000
  O1     O1        0.760112923789367    0.232997650562698    0.688285236562266  0.0000
  O1     O1        0.725645822687221    0.783760233512765    0.705619845137749  0.0000
  O1     O1        0.137551366439875    0.262689352078391    0.110842243917222  0.0000
  O3     O3        0.354234415762751    0.775096924202288    0.105733259807824  0.0000
  O3     O3        0.872839442959688    0.364282705551555    0.855265221492539  0.0000
  O1     O1        0.612544738157685    0.644730642458478    0.869786552878550  0.0000
  O1     O1        0.856255652140663    0.766731477556013    0.859203751834578  0.0000
  O1     O1        0.637692849138852    0.254570839249875    0.863230735605447  0.0000
  O3     O3        0.124864160551532    0.655739299027346    0.104491712581302  0.0000
  O1     O1        0.386321326449771    0.366377509659202    0.120101739219552  0.0000
  O1     O1        0.655627454435313    0.458010270319804    0.088413906749383  0.0000
  O3     O3        0.837459514241177    0.526514861829272    0.066331214461353  0.0000
  O3     O3        0.341964188168476    0.561369145416287    0.906765168375688  0.0000
  O1     O1        0.160014048308959    0.473558564443151    0.884275548402089  0.0000
  O3     O3        0.769090741949183    0.230578694598508    0.011911020525567  0.0000
  O1     O1        0.729790131076957    0.772142834481651    0.023321785531558  0.0000
  O1     O1        0.268299159600432    0.244017802033120    0.959206792725419  0.0000
  O3     O3        0.238199045934576    0.788637127006593    0.944276680317535  0.0000
