data_c00707.vasp
_audit_creation_method             Generated by GULP
_audit_author_name                 Salvador R. G. Balestra
_symmetry_space_group_name_H-M     'P 1             '
_symmetry_Int_Tables_number        1

loop_
_symmetry_equiv_pos_site_id
_symmetry_equiv_pos_as_xyz
_cell_length_a                       17.5406
_cell_length_b                        7.8338
_cell_length_c                       10.2427
_cell_angle_alpha                   90.6330
_cell_angle_beta                    90.1297
_cell_angle_gamma                   87.9765

loop_
_atom_site_label
_atom_site_type_symbol
_atom_site_fract_x
_atom_site_fract_y
_atom_site_fract_z
_atom_site_charge
  Ge     Ge        0.052090000000021    0.000000000000000    0.372269999999958  0.0000
  Ge     Ge        0.445776531198397    0.946836486844124    0.389863321610246  0.0000
  Ge     Ge        0.950567171602171    0.940169224497644    0.625964419442722  0.0000
  Ge     Ge        0.556016300814308    0.996458499979696    0.142328954334501  0.0000
  Ge     Ge        0.942581201265882    0.939833855603480    0.130591645613103  0.0000
  Ge     Ge        0.452494120955480    0.924850379869981    0.885440797331069  0.0000
  Ge     Ge        0.052665187406297    0.995006932064847    0.886058255303710  0.0000
  Ge     Ge        0.143073482742629    0.316036081347656    0.261278401191360  0.0000
  Ge     Ge        0.350404269632791    0.634274925342899    0.267977531502472  0.0000
  Ge     Ge        0.824932101492381    0.226432998010013    0.699187025001730  0.0000
  Ge     Ge        0.668128181591648    0.707363567460943    0.708573410839022  0.0000
  Ge     Ge        0.851430870970048    0.629382039744919    0.698927263196091  0.0000
  Ge     Ge        0.643527899473217    0.304417707962602    0.702950611858004  0.0000
  Ge     Ge        0.325049560989250    0.233572948103942    0.277106845405596  0.0000
  Ge     Ge        0.647345816516418    0.307923568940679    0.020343001156476  0.0000
  Ge     Ge        0.856931098305340    0.618229821007994    0.012532519045149  0.0000
  Ge     Ge        0.328713124086252    0.215687350262997    0.961579427510949  0.0000
  Ge     Ge        0.173541240655607    0.695224484200991    0.948103860328889  0.0000
  Ge     Ge        0.354317357581650    0.615468163594535    0.947698910026083  0.0000
  Ge     Ge        0.674251731788717    0.706619731559974    0.024447338412375  0.0000
  Si     Si        0.550084569164219    0.993279262000658    0.635811321080515  0.0000
  Si     Si        0.171117697147979    0.710622258421508    0.258221072980221  0.0000
  Si     Si        0.150540521702551    0.300736534249128    0.954066407401359  0.0000
  Si     Si        0.826311002976083    0.225456681400870    0.010144485025392  0.0000
  O1     O1        0.077010166252954    0.207240676270986    0.346523602038014  0.0000
  O1     O1        0.415508480426701    0.745837047197605    0.355088502975786  0.0000
  O1     O1        0.876227800565471    0.086985149931442    0.603015164521436  0.0000
  O3     O3        0.618734937336511    0.854257113759594    0.612501640840561  0.0000
  O1     O1        0.914106668326398    0.740921906930593    0.607075900397164  0.0000
  O3     O3        0.579252634630085    0.183142699707408    0.615342085587240  0.0000
  O3     O3        0.127335605637759    0.858807290949564    0.339160645597943  0.0000
  O1     O1        0.369654723795381    0.087008596147411    0.375845504886388  0.0000
  O1     O1        0.028926092136150    0.975387907630889    0.534254145739002  0.0000
  O3     O3        0.476454734506223    0.953257182844488    0.551551536244530  0.0000
  O1     O1        0.968987571200653    0.957424608483450    0.291451801308845  0.0000
  O1     O1        0.523425642712419    0.998624237769646    0.299951181754153  0.0000
  O1     O1        0.976402341804501    0.970361379111912    0.787621834353892  0.0000
  O3     O3        0.527027941972599    0.977039325870930    0.788657643838156  0.0000
  O1     O1        0.582993261646953    0.199981504996118    0.108069512177529  0.0000
  O1     O1        0.919257058329918    0.730669796708145    0.105047961417450  0.0000
  O1     O1        0.374422934091425    0.063398572789856    0.869257742354545  0.0000
  O1     O1        0.119480435453036    0.831655469081392    0.856254590205806  0.0000
  O1     O1        0.420647174491938    0.722174887508764    0.860774603247526  0.0000
  O3     O3        0.095037565482298    0.190658818748880    0.865212860284396  0.0000
  O1     O1        0.633981245196946    0.859922107933933    0.124195980186817  0.0000
  O3     O3        0.866431772868020    0.077907062667968    0.094832789897646  0.0000
  O1     O1        0.482331981549940    0.934649682260765    0.045457034529459  0.0000
  O1     O1        0.022302753157952    0.989113613158885    0.045140907118409  0.0000
  O3     O3        0.152726494998134    0.524833045408953    0.315517508762679  0.0000
  O1     O1        0.342301340514343    0.436232457214482    0.333454678548198  0.0000
  O1     O1        0.838236097701773    0.428724204215281    0.639905556406348  0.0000
  O1     O1        0.652032251567887    0.506061579582958    0.644502387776312  0.0000
  O1     O1        0.228725729532337    0.207000652639675    0.277899479800699  0.0000
  O3     O3        0.261288295179607    0.739324686470963    0.265501779786274  0.0000
  O1     O1        0.729431432329434    0.191350966500642    0.695298991282061  0.0000
  O1     O1        0.764227805175779    0.739493569526769    0.705080212742554  0.0000
  O3     O3        0.115874728444388    0.323994841961051    0.099086535827538  0.0000
  O1     O1        0.380258146688772    0.609584370708652    0.109954937266182  0.0000
  O3     O3        0.855294434980417    0.217881613227355    0.861171339779836  0.0000
  O1     O1        0.637667430226625    0.720575734222725    0.868219176498919  0.0000
  O1     O1        0.888367349607916    0.614525181787017    0.854518151890941  0.0000
  O1     O1        0.615299381082084    0.326108622111823    0.862501542725800  0.0000
  O3     O3        0.143426122401372    0.717449291896349    0.108685444979854  0.0000
  O1     O1        0.360270805039536    0.206356405204756    0.120934097088697  0.0000
  O1     O1        0.655835214480859    0.507902841919851    0.085228785396563  0.0000
  O3     O3        0.845795477548430    0.412207329647886    0.068041430064443  0.0000
  O1     O1        0.347198998491266    0.410649685295853    0.893967617887346  0.0000
  O3     O3        0.162486625853834    0.485304375185967    0.894228078640530  0.0000
  O3     O3        0.735861137644420    0.201308919693430    0.013816780489800  0.0000
  O1     O1        0.770503732503973    0.727620093471982    0.016270955346231  0.0000
  O3     O3        0.230978196130202    0.194926493895102    0.967220031740031  0.0000
  O1     O1        0.268531836050189    0.730129134325676    0.937123881003511  0.0000
