data_c00733.vasp
_audit_creation_method             Generated by GULP
_audit_author_name                 Salvador R. G. Balestra
_symmetry_space_group_name_H-M     'P 1             '
_symmetry_Int_Tables_number        1

loop_
_symmetry_equiv_pos_site_id
_symmetry_equiv_pos_as_xyz
_cell_length_a                       17.5676
_cell_length_b                        7.8419
_cell_length_c                       10.2401
_cell_angle_alpha                   90.7419
_cell_angle_beta                    90.4220
_cell_angle_gamma                   91.8537

loop_
_atom_site_label
_atom_site_type_symbol
_atom_site_fract_x
_atom_site_fract_y
_atom_site_fract_z
_atom_site_charge
  Ge     Ge        0.052090000000021    0.000000000000000    0.372269999999958  0.0000
  Ge     Ge        0.447402781674579    0.064866180482108    0.379366348359801  0.0000
  Ge     Ge        0.944658857119542    0.040768343228474    0.620664066444560  0.0000
  Ge     Ge        0.556311202885314    0.003662795658405    0.131989684078646  0.0000
  Ge     Ge        0.938108618850291    0.044909939978270    0.131459381144829  0.0000
  Ge     Ge        0.449344528180240    0.053363619397220    0.877101795419540  0.0000
  Ge     Ge        0.044367593083670    0.985389776221674    0.881167909132507  0.0000
  Ge     Ge        0.169702910009053    0.299515477018421    0.266312908385419  0.0000
  Ge     Ge        0.324721090407743    0.774489973245990    0.261842761818127  0.0000
  Ge     Ge        0.846937278256472    0.351752825620081    0.695342028872353  0.0000
  Ge     Ge        0.639353459417117    0.687623619285593    0.701600030827813  0.0000
  Ge     Ge        0.821754102311302    0.756712990579837    0.700919700777356  0.0000
  Ge     Ge        0.664602608290384    0.283288780505091    0.702083511677681  0.0000
  Ge     Ge        0.352798775198785    0.374614658645836    0.269582573767243  0.0000
  Ge     Ge        0.350293061161703    0.362905314239891    0.951269491325705  0.0000
  Ge     Ge        0.145802755609963    0.677524258736483    0.943016746312058  0.0000
  Ge     Ge        0.324695592124461    0.765654628017066    0.943941861311237  0.0000
  Ge     Ge        0.169757284836282    0.274658835360016    0.951395928683886  0.0000
  Ge     Ge        0.644307376172630    0.682807393880632    0.014504139337794  0.0000
  Ge     Ge        0.849068976212026    0.361200447645113    0.010024486204709  0.0000
  Si     Si        0.547476227799963    0.995751568090628    0.626622771533444  0.0000
  Si     Si        0.147094129409645    0.693615953403556    0.255408213834921  0.0000
  Si     Si        0.668375783950383    0.291337763201694    0.011366270444647  0.0000
  Si     Si        0.825195457908419    0.754349663394445    0.009000452760422  0.0000
  O1     O1        0.119881725734449    0.160447781450851    0.363456212103726  0.0000
  O1     O1        0.368629991267915    0.935291310510767    0.349526348766396  0.0000
  O1     O1        0.908699946782789    0.239855767574146    0.600252288988054  0.0000
  O3     O3        0.578270973645468    0.806742468065250    0.606954119679993  0.0000
  O1     O1        0.870700279924439    0.892646631735484    0.601819218074313  0.0000
  O3     O3        0.614524970112696    0.137335227746784    0.604566086144001  0.0000
  O3     O3        0.085208589923015    0.801544499602889    0.331504099126872  0.0000
  O1     O1        0.419461542034691    0.269930938000914    0.358858698844037  0.0000
  O1     O1        0.023423036434770    0.997026809884408    0.533435156756040  0.0000
  O3     O3        0.473977644063338    0.031571741823219    0.540904875673675  0.0000
  O1     O1        0.968437334303456    0.036990327637056    0.290817655004635  0.0000
  O1     O1        0.526476516300746    0.019956144062937    0.290424598458447  0.0000
  O1     O1        0.969504529174156    0.026373136679730    0.784400941276422  0.0000
  O3     O3        0.525524830852446    0.016663876607808    0.779451320131674  0.0000
  O3     O3        0.630675144927731    0.146218144556457    0.099788107770903  0.0000
  O3     O3        0.863351787922062    0.901249271135058    0.099316068011500  0.0000
  O1     O1        0.413734286283752    0.252887431091107    0.859294873850005  0.0000
  O1     O1        0.077523816266814    0.782204150906155    0.859946343568397  0.0000
  O1     O1        0.376684280010302    0.903660668693478    0.850780546573764  0.0000
  O1     O1        0.119713566005499    0.128948343242397    0.858209773069213  0.0000
  O1     O1        0.587911153720933    0.799246449200321    0.113043682467208  0.0000
  O1     O1        0.907430730892750    0.248718475615836    0.107062280921210  0.0000
  O1     O1        0.478368265140056    0.039642848670605    0.037673091148060  0.0000
  O1     O1        0.016780768561707    0.002425804460738    0.042045182799886  0.0000
  O3     O3        0.157003567869334    0.509246115925094    0.318965481499422  0.0000
  O1     O1        0.344531000629537    0.579744499988047    0.326868249713578  0.0000
  O1     O1        0.834795391650746    0.552922115433692    0.641174617613476  0.0000
  O1     O1        0.647579480186130    0.484375405635469    0.643224946123647  0.0000
  O1     O1        0.265607753942137    0.267610327482027    0.274847767911119  0.0000
  O3     O3        0.227072198461524    0.800766023029119    0.260074732412497  0.0000
  O1     O1        0.759279140820186    0.244431930743411    0.694581187546246  0.0000
  O1     O1        0.726606979477534    0.793977748866582    0.700288506592325  0.0000
  O1     O1        0.137071636568530    0.266372759254336    0.109896138337996  0.0000
  O1     O1        0.355870345822188    0.781568698811393    0.103740546753569  0.0000
  O1     O1        0.881830054862785    0.358086460861747    0.853251337764207  0.0000
  O1     O1        0.606824453944021    0.680312232101340    0.859422579044580  0.0000
  O3     O3        0.856138131723879    0.767112535991947    0.861379103105153  0.0000
  O3     O3        0.635195916925813    0.280561376910806    0.864049890836747  0.0000
  O3     O3        0.121304171116143    0.660463822933274    0.106652340639586  0.0000
  O1     O1        0.382096059615686    0.384119747156487    0.110113818576773  0.0000
  O3     O3        0.649786575493332    0.476656891477978    0.071258138821453  0.0000
  O3     O3        0.845069920590638    0.570079876230089    0.065853874911113  0.0000
  O1     O1        0.336604200501446    0.559144586223642    0.888198399660107  0.0000
  O1     O1        0.156459702132245    0.475073064102222    0.886839510384388  0.0000
  O3     O3        0.758397023621808    0.268430926212818    0.006307575637497  0.0000
  O3     O3        0.734804733886807    0.774411954014331    0.004865650908672  0.0000
  O1     O1        0.265750670019111    0.243715451420389    0.954971805876615  0.0000
  O1     O1        0.229035144240812    0.799515537110671    0.935592257000462  0.0000
