data_c00726.vasp
_audit_creation_method             Generated by GULP
_audit_author_name                 Salvador R. G. Balestra
_symmetry_space_group_name_H-M     'P 1             '
_symmetry_Int_Tables_number        1

loop_
_symmetry_equiv_pos_site_id
_symmetry_equiv_pos_as_xyz
_cell_length_a                       17.5818
_cell_length_b                        7.8457
_cell_length_c                       10.2241
_cell_angle_alpha                   91.1711
_cell_angle_beta                    89.5850
_cell_angle_gamma                   88.2364

loop_
_atom_site_label
_atom_site_type_symbol
_atom_site_fract_x
_atom_site_fract_y
_atom_site_fract_z
_atom_site_charge
  Ge     Ge        0.052090000000021    0.000000000000000    0.372269999999958  0.0000
  Ge     Ge        0.445039192812172    0.956730049648989    0.355702323944374  0.0000
  Ge     Ge        0.947989342511713    0.945488269573832    0.625829821634880  0.0000
  Ge     Ge        0.550489358983786    0.025280070250747    0.100699202131977  0.0000
  Ge     Ge        0.942329199587587    0.958955633626292    0.128772487019081  0.0000
  Ge     Ge        0.447113783702095    0.955655147130673    0.847166529822751  0.0000
  Ge     Ge        0.051905122124123    0.005113555958297    0.880660962607275  0.0000
  Ge     Ge        0.141811349275005    0.318259903237155    0.259609587429686  0.0000
  Ge     Ge        0.349655917173632    0.641699135559507    0.276475742775993  0.0000
  Ge     Ge        0.824486185874003    0.234885018506584    0.702714187135341  0.0000
  Ge     Ge        0.666391103755840    0.716986627539550    0.704868217232891  0.0000
  Ge     Ge        0.846990892393356    0.637641387860378    0.694181220194356  0.0000
  Ge     Ge        0.642102988693686    0.314429019584594    0.714053057819501  0.0000
  Ge     Ge        0.323657296956382    0.241449925390752    0.272325904332019  0.0000
  Ge     Ge        0.645489262529896    0.337868877325321    0.031566996007329  0.0000
  Ge     Ge        0.175908054586070    0.714693153593702    0.949637254394130  0.0000
  Ge     Ge        0.357454674071144    0.639546631445608    0.961396400880612  0.0000
  Ge     Ge        0.151101241437816    0.316937062502724    0.944368188782609  0.0000
  Ge     Ge        0.673016527913358    0.734884183111005    0.023099999967870  0.0000
  Ge     Ge        0.826921087830788    0.255914288192008    0.017983491772355  0.0000
  Si     Si        0.549215030412671    0.005536238014842    0.599889451267357  0.0000
  Si     Si        0.170291676197388    0.711511324779333    0.259806379360811  0.0000
  Si     Si        0.849955536350436    0.651869962241324    0.006504456387599  0.0000
  Si     Si        0.329837831581513    0.242553000173199    0.962564408830080  0.0000
  O1     O1        0.076789465255626    0.206698719705377    0.346354345151495  0.0000
  O1     O1        0.407953035967000    0.759474279345628    0.374338152489146  0.0000
  O1     O1        0.873915434862769    0.090903166241207    0.604812738249165  0.0000
  O3     O3        0.617455370495869    0.868150277486294    0.616144060864853  0.0000
  O1     O1        0.913059963253545    0.744217189166112    0.606873915210291  0.0000
  O3     O3        0.575772273142898    0.195191548305740    0.632401993850874  0.0000
  O3     O3        0.128221783832995    0.860149311833401    0.343794735459997  0.0000
  O1     O1        0.370550125713919    0.102287285846661    0.371201369523774  0.0000
  O1     O1        0.026476273746686    0.982145292209375    0.534364978270808  0.0000
  O3     O3        0.522990429267451    0.997818588634600    0.449336154384663  0.0000
  O1     O1        0.971700554204427    0.947681615287992    0.288392167004632  0.0000
  O1     O1        0.476028433823918    0.974546003174545    0.195583304989971  0.0000
  O1     O1        0.975267291021105    0.965340837684986    0.787685512554819  0.0000
  O3     O3        0.475165172621445    0.961121788259662    0.684449761608259  0.0000
  O1     O1        0.582676605768095    0.228254056959693    0.124421222752547  0.0000
  O3     O3        0.912305904407674    0.758374327190159    0.082367683133479  0.0000
  O3     O3        0.370916265872624    0.097187695028008    0.873692170163987  0.0000
  O1     O1        0.125457037090319    0.856373880735803    0.859664899158731  0.0000
  O1     O1        0.421924297773545    0.748628714255560    0.872656818512844  0.0000
  O1     O1        0.092261079759857    0.198155438889836    0.850179072746326  0.0000
  O1     O1        0.628322794662849    0.887167580128864    0.117849421154949  0.0000
  O1     O1        0.873253879866514    0.117288761768757    0.118662150325273  0.0000
  O1     O1        0.523118163264402    0.009890180744731    0.938901644091204  0.0000
  O1     O1        0.021880349904945    0.006935382662671    0.041500529428149  0.0000
  O3     O3        0.152373207521682    0.526447305368019    0.317170144527091  0.0000
  O1     O1        0.341631773740199    0.442494118436914    0.334194889263258  0.0000
  O1     O1        0.837323791467963    0.434060739718103    0.638279394185284  0.0000
  O1     O1        0.650640408086221    0.512763686273572    0.647605416643900  0.0000
  O1     O1        0.228274621307038    0.211033040352759    0.273688715268814  0.0000
  O3     O3        0.260245029785158    0.740227851681003    0.262775557585953  0.0000
  O1     O1        0.728377174685767    0.204248797257982    0.708133312195001  0.0000
  O1     O1        0.761876473642166    0.751324235244594    0.690125324116692  0.0000
  O1     O1        0.113757831829377    0.326212085364270    0.100752261017479  0.0000
  O1     O1        0.387001107141132    0.638278561561560    0.120423759228053  0.0000
  O1     O1        0.858938153584812    0.222940667656579    0.860224044021385  0.0000
  O1     O1        0.638720698714780    0.737124169613169    0.865624010043429  0.0000
  O3     O3        0.874866836495166    0.622107358192147    0.856378750993267  0.0000
  O1     O1        0.613690197121343    0.349111203242748    0.872626315477043  0.0000
  O3     O3        0.142425302608291    0.718084432330380    0.110285345490988  0.0000
  O3     O3        0.358474948131876    0.230201272827241    0.111957242609364  0.0000
  O1     O1        0.655665206991534    0.539988668408245    0.090878231199104  0.0000
  O3     O3        0.840186315173561    0.467096143212814    0.068243893400720  0.0000
  O3     O3        0.347826683489690    0.429593874451481    0.908803152052342  0.0000
  O1     O1        0.160255595260718    0.514450847215307    0.883651501495850  0.0000
  O1     O1        0.731197199091141    0.225078730942389    0.024632591368864  0.0000
  O3     O3        0.770341991600429    0.760441553700327    0.013576218598150  0.0000
  O3     O3        0.239915895123811    0.216033821246488    0.961042163819956  0.0000
  O1     O1        0.271260954145565    0.747146649645408    0.947203315499141  0.0000
