data_c00759.vasp
_audit_creation_method             Generated by GULP
_audit_author_name                 Salvador R. G. Balestra
_symmetry_space_group_name_H-M     'P 1             '
_symmetry_Int_Tables_number        1

loop_
_symmetry_equiv_pos_site_id
_symmetry_equiv_pos_as_xyz
_cell_length_a                       17.6630
_cell_length_b                        7.8025
_cell_length_c                       10.2125
_cell_angle_alpha                   91.3045
_cell_angle_beta                    90.5895
_cell_angle_gamma                   89.2251

loop_
_atom_site_label
_atom_site_type_symbol
_atom_site_fract_x
_atom_site_fract_y
_atom_site_fract_z
_atom_site_charge
  Ge     Ge        0.052090000000021    0.000000000000000    0.372269999999958  0.0000
  Ge     Ge        0.449789798152365    0.954741905811601    0.346012043237207  0.0000
  Ge     Ge        0.947638792258076    0.949800448468948    0.624640312090576  0.0000
  Ge     Ge        0.549988476236270    0.021762466282954    0.086906478745597  0.0000
  Ge     Ge        0.944284130002311    0.961531984590778    0.124738705949168  0.0000
  Ge     Ge        0.446338502488589    0.949447332778454    0.828018509971405  0.0000
  Ge     Ge        0.053917118795361    0.006078949960141    0.881258224286538  0.0000
  Ge     Ge        0.147037729853846    0.310988875572301    0.253872108276696  0.0000
  Ge     Ge        0.354246779632216    0.636247828229922    0.265873198043591  0.0000
  Ge     Ge        0.824839753436069    0.233617888308223    0.698848650551542  0.0000
  Ge     Ge        0.665622434083546    0.700239354781779    0.691839617613356  0.0000
  Ge     Ge        0.846423617995933    0.635015218545045    0.683193363194762  0.0000
  Ge     Ge        0.174459519620294    0.716178495852754    0.262470593686096  0.0000
  Ge     Ge        0.325751375620051    0.229479907344527    0.261453177263429  0.0000
  Ge     Ge        0.649803121029115    0.331669278561117    0.023379009062462  0.0000
  Ge     Ge        0.326656817936615    0.231939442370966    0.943773335092092  0.0000
  Ge     Ge        0.174274595312557    0.713502194528468    0.946499911333510  0.0000
  Ge     Ge        0.355032352954179    0.636848949898569    0.947199342451587  0.0000
  Ge     Ge        0.672792926937996    0.734084360605626    0.008973921619967  0.0000
  Ge     Ge        0.828246065613762    0.256103590806211    0.015134475985198  0.0000
  Si     Si        0.554143447332421    0.994037693078054    0.590204506794203  0.0000
  Si     Si        0.647042424637776    0.303143444046164    0.711158963210195  0.0000
  Si     Si        0.847991038170330    0.655568090471008    0.997192555126723  0.0000
  Si     Si        0.151387224140321    0.318248509827949    0.942783802011690  0.0000
  O1     O1        0.077063174336262    0.203812289571036    0.330245509676796  0.0000
  O1     O1        0.417962328691592    0.749979278215347    0.361043652683497  0.0000
  O1     O1        0.870002595323775    0.083311532825171    0.604001811342173  0.0000
  O3     O3        0.614446747339920    0.839615197993535    0.595630986498915  0.0000
  O1     O1        0.913885666977784    0.745113435120843    0.602486825865295  0.0000
  O2     O2        0.587427532448829    0.176401993537392    0.639226673294796  0.0000
  O1     O1        0.127815819667916    0.862486010513937    0.360230642732169  0.0000
  O1     O1        0.374655908842787    0.094992537632415    0.362391626388935  0.0000
  O1     O1        0.023708972217301    0.998548543219037    0.533575974071401  0.0000
  O3     O3        0.527614576723372    0.008692387274781    0.439771576452524  0.0000
  O1     O1        0.973245052357862    0.938372812905719    0.284542776368505  0.0000
  O1     O1        0.477791703297266    0.972195873760020    0.184674161179639  0.0000
  O1     O1        0.976087962835924    0.974713429203735    0.786294003323232  0.0000
  O3     O3        0.478180988690272    0.951665527817494    0.667946315704312  0.0000
  O1     O1        0.583790519361409    0.226436034072204    0.110490070222475  0.0000
  O3     O3        0.911469827902041    0.763531314995345    0.072099867235995  0.0000
  O1     O1        0.367463809928635    0.079393700310398    0.844644751192179  0.0000
  O1     O1        0.122067333547877    0.849794056527750    0.852285466243896  0.0000
  O1     O1        0.421121970768835    0.743004030409237    0.860545330116516  0.0000
  O3     O3        0.092471014948162    0.207725374898599    0.857749532401548  0.0000
  O1     O1        0.626844174484048    0.883789285089809    0.102074237330908  0.0000
  O1     O1        0.878650247906964    0.124919798784132    0.116470648786386  0.0000
  O1     O1        0.518868159844232    0.015315038413760    0.926441782693954  0.0000
  O1     O1        0.024999988136010    0.006400386897879    0.041623740851633  0.0000
  O1     O1        0.159130414037576    0.513010637820860    0.319243846441640  0.0000
  O1     O1        0.339881496499230    0.435872196901866    0.321392901673328  0.0000
  O1     O1        0.841386751964056    0.427839839186758    0.628618446536313  0.0000
  O3     O3        0.651551707868550    0.486725227185841    0.642843011218528  0.0000
  O1     O1        0.230109163404510    0.193277569184322    0.264162396338293  0.0000
  O1     O1        0.270016894239354    0.751092582508776    0.263811621364673  0.0000
  O3     O3        0.727975448249241    0.206288597658951    0.707565006010537  0.0000
  O1     O1        0.760006544101369    0.738230425605173    0.672359157508744  0.0000
  O3     O3        0.123365900337851    0.345428467755736    0.091654164153778  0.0000
  O1     O1        0.385215744780748    0.620973527977750    0.106929391008651  0.0000
  O1     O1        0.858339995883211    0.221228100152479    0.857614824668953  0.0000
  O1     O1        0.638420774396217    0.737975818187280    0.850203435704708  0.0000
  O3     O3        0.871188928069623    0.621635367163432    0.847618328767286  0.0000
  O3     O3        0.622846307933725    0.343222342750274    0.858865440210364  0.0000
  O1     O1        0.142139757940171    0.737716999092301    0.104093920255083  0.0000
  O1     O1        0.358469874589093    0.211415622168414    0.102836861087759  0.0000
  O1     O1        0.657485631452787    0.538084371670256    0.077814799176521  0.0000
  O3     O3        0.837647050075738    0.471670751677680    0.061519863872420  0.0000
  O1     O1        0.345813065628912    0.431735289166677    0.886259124207198  0.0000
  O3     O3        0.163395719932269    0.504187949904420    0.884789151915898  0.0000
  O1     O1        0.733534686162408    0.217316515830177    0.028980935295867  0.0000
  O3     O3        0.769590527441397    0.765075681835115    0.001869571013523  0.0000
  O3     O3        0.229559491883031    0.208558218567342    0.948438650142059  0.0000
  O1     O1        0.269810532790892    0.748226836578937    0.943199097870024  0.0000
