data_c00774.vasp
_audit_creation_method             Generated by GULP
_audit_author_name                 Salvador R. G. Balestra
_symmetry_space_group_name_H-M     'P 1             '
_symmetry_Int_Tables_number        1

loop_
_symmetry_equiv_pos_site_id
_symmetry_equiv_pos_as_xyz
_cell_length_a                       17.7963
_cell_length_b                        7.7782
_cell_length_c                       10.4608
_cell_angle_alpha                   89.6694
_cell_angle_beta                    90.8976
_cell_angle_gamma                   89.4448

loop_
_atom_site_label
_atom_site_type_symbol
_atom_site_fract_x
_atom_site_fract_y
_atom_site_fract_z
_atom_site_charge
  Ge     Ge        0.052090000000021    0.000000000000000    0.372269999999958  0.0000
  Ge     Ge        0.449410517215596    0.029912534338055    0.402700556985757  0.0000
  Ge     Ge        0.945553589316098    0.985974505527342    0.619049336870328  0.0000
  Ge     Ge        0.554358923914973    0.031114977620814    0.153887427447217  0.0000
  Ge     Ge        0.950568472803386    0.002063270632647    0.112447507482527  0.0000
  Ge     Ge        0.447397485597585    0.030015338067136    0.903719677045537  0.0000
  Ge     Ge        0.056143819903675    0.007336980703755    0.868405200395673  0.0000
  Ge     Ge        0.173489173296460    0.275209030807025    0.291446433193032  0.0000
  Ge     Ge        0.330909296940944    0.743347557351339    0.296273064758044  0.0000
  Ge     Ge        0.823983541978119    0.272156424241518    0.735089097371928  0.0000
  Ge     Ge        0.663515134412747    0.737087733328166    0.726183727696835  0.0000
  Ge     Ge        0.845159803382270    0.678213809516140    0.718535140171545  0.0000
  Ge     Ge        0.152845096559883    0.685500048147146    0.300419384164024  0.0000
  Ge     Ge        0.646884957044216    0.346871452713365    0.042712542632587  0.0000
  Ge     Ge        0.852192123179682    0.685720557305020    0.030837660138932  0.0000
  Ge     Ge        0.350560358127229    0.349730010344084    0.981785746233756  0.0000
  Ge     Ge        0.326140086852187    0.760080017003979    0.986765579722100  0.0000
  Ge     Ge        0.171952391082173    0.291545999933696    0.982317008341851  0.0000
  Ge     Ge        0.673528969588363    0.756402519810857    0.035558929628557  0.0000
  Ge     Ge        0.824677528370260    0.278456418770515    0.046646796125635  0.0000
  Si     Si        0.549795818726102    0.027790533942942    0.657786422934354  0.0000
  Si     Si        0.647131859062001    0.335209113808798    0.737845118843185  0.0000
  Si     Si        0.348845224358645    0.335522488872617    0.285840109920483  0.0000
  Si     Si        0.150980593477202    0.697779462747874    0.994853696744116  0.0000
  O1     O1        0.126506571506479    0.139035867791254    0.389498389078484  0.0000
  O1     O1        0.385904415461205    0.866083270063114    0.394046141734460  0.0000
  O1     O1        0.870854963726131    0.119094647888875    0.651679765373586  0.0000
  O3     O3        0.609616273918757    0.875954801725498    0.630846544892893  0.0000
  O1     O1        0.909303758193802    0.783277628113481    0.627032281821253  0.0000
  O2     O2        0.590472132380663    0.213632797535921    0.657553486078895  0.0000
  O1     O1        0.087848327466144    0.794840864428585    0.387939216884876  0.0000
  O3     O3        0.408266005901646    0.227570254049870    0.370102911414583  0.0000
  O1     O1        0.976874636119444    0.031127617677150    0.467538427561892  0.0000
  O3     O3        0.480984985471760    0.032726987816635    0.559646266867249  0.0000
  O1     O1        0.022736438510750    0.033358077263168    0.216228562505449  0.0000
  O1     O1        0.525389224036501    0.001155683583449    0.307617220170894  0.0000
  O1     O1        0.024914789948298    0.006593856914956    0.712636218789130  0.0000
  O3     O3        0.516671254180775    0.989000126300628    0.797139434983510  0.0000
  O1     O1        0.578978066828608    0.241537901777968    0.124006121020367  0.0000
  O1     O1        0.917355368362703    0.795514399535445    0.119074311943445  0.0000
  O1     O1        0.416493579846172    0.239475166023085    0.897282782414497  0.0000
  O3     O3        0.090483830922072    0.805498387763626    0.912639259168826  0.0000
  O1     O1        0.369258255534861    0.901269389270057    0.888303936472427  0.0000
  O1     O1        0.122634383444962    0.164901052493260    0.879285232504002  0.0000
  O1     O1        0.632148933334416    0.903453323581255    0.131796624220698  0.0000
  O1     O1        0.876139476132333    0.140238415383288    0.139792266405779  0.0000
  O1     O1        0.482788055057223    0.974934025506514    0.052424605745049  0.0000
  O1     O1        0.980341116369108    0.050913550288545    0.960569605310408  0.0000
  O1     O1        0.158854753901693    0.478259649149485    0.351197610064832  0.0000
  O3     O3        0.337951794747672    0.526601646439575    0.338808668684988  0.0000
  O1     O1        0.839199587722501    0.470147802897060    0.667596298029823  0.0000
  O3     O3        0.651026029016950    0.524517606525612    0.677148819996861  0.0000
  O3     O3        0.269527649404398    0.236135401242541    0.287210426597646  0.0000
  O1     O1        0.237212916142622    0.791193552602944    0.311178840775495  0.0000
  O3     O3        0.727766635770707    0.240189518682085    0.737658199825822  0.0000
  O1     O1        0.757658275640640    0.775903393158746    0.711314819207391  0.0000
  O1     O1        0.141741259873851    0.260211714176178    0.135491983841264  0.0000
  O1     O1        0.358682964185928    0.775055103307712    0.142244776635385  0.0000
  O1     O1        0.854202221601851    0.268579957805998    0.890659269564007  0.0000
  O1     O1        0.637876608635612    0.763121232095573    0.881668380363979  0.0000
  O1     O1        0.879145026020209    0.679368305313449    0.873613729176919  0.0000
  O3     O3        0.619478940882126    0.353516712298317    0.882446584847790  0.0000
  O3     O3        0.124181255896975    0.684895147467667    0.140452860082570  0.0000
  O3     O3        0.378649728510433    0.345749536226742    0.141884441030836  0.0000
  O1     O1        0.658358207507444    0.551994275808127    0.095383241811967  0.0000
  O1     O1        0.839561857832735    0.487193280927884    0.095591524864234  0.0000
  O1     O1        0.343664674244461    0.556437351529854    0.929865133886483  0.0000
  O3     O3        0.161063003462221    0.507447493554598    0.939552091022585  0.0000
  O1     O1        0.730778438452675    0.236182126996424    0.055909727030119  0.0000
  O1     O1        0.767674331313341    0.796180831219205    0.029157250693721  0.0000
  O1     O1        0.265890895478202    0.246278517413089    0.971485255506365  0.0000
  O3     O3        0.230135086051894    0.796995979109033    0.991180539793737  0.0000
