data_c00795.vasp
_audit_creation_method             Generated by GULP
_audit_author_name                 Salvador R. G. Balestra
_symmetry_space_group_name_H-M     'P 1             '
_symmetry_Int_Tables_number        1

loop_
_symmetry_equiv_pos_site_id
_symmetry_equiv_pos_as_xyz
_cell_length_a                       17.7001
_cell_length_b                        7.7557
_cell_length_c                       10.5570
_cell_angle_alpha                   88.9036
_cell_angle_beta                    90.5066
_cell_angle_gamma                   90.4008

loop_
_atom_site_label
_atom_site_type_symbol
_atom_site_fract_x
_atom_site_fract_y
_atom_site_fract_z
_atom_site_charge
  Ge     Ge        0.052090000000021    0.000000000000000    0.372269999999958  0.0000
  Ge     Ge        0.451783818093332    0.037583518535467    0.378861837006058  0.0000
  Ge     Ge        0.950329335037548    0.020482754798516    0.627635658856420  0.0000
  Ge     Ge        0.549956049262316    0.024686906152024    0.118400488067349  0.0000
  Ge     Ge        0.954678990774888    0.004558523652868    0.110921855379563  0.0000
  Ge     Ge        0.445320672627751    0.046661603628150    0.864273491820690  0.0000
  Ge     Ge        0.063653637943730    0.018903042450535    0.867776433727631  0.0000
  Ge     Ge        0.175717958984851    0.274487978894687    0.283053827497708  0.0000
  Ge     Ge        0.329101829621788    0.767414599967551    0.288740170616151  0.0000
  Ge     Ge        0.830716629094635    0.307745393188936    0.728734524385788  0.0000
  Ge     Ge        0.671724972702962    0.768872126353558    0.736758197099914  0.0000
  Ge     Ge        0.649163952635918    0.359845374065279    0.724564944848689  0.0000
  Ge     Ge        0.150159383877537    0.692538101151904    0.284523797154021  0.0000
  Ge     Ge        0.354135914194639    0.351308408249523    0.285741861271915  0.0000
  Ge     Ge        0.648827263489444    0.345407010841136    0.034066561510343  0.0000
  Ge     Ge        0.853667726462530    0.687435212956549    0.042359231201170  0.0000
  Ge     Ge        0.354467444207196    0.363343598594347    0.977495819831669  0.0000
  Ge     Ge        0.328143669576316    0.771094584535825    0.982603024714067  0.0000
  Ge     Ge        0.676145322436149    0.755156741751115    0.045967758537162  0.0000
  Ge     Ge        0.827882995675866    0.276215698016951    0.035293521548680  0.0000
  Si     Si        0.553366964251653    0.051527074193407    0.625637178809084  0.0000
  Si     Si        0.848277855655942    0.711386536924498    0.738885722759055  0.0000
  Si     Si        0.149558721900178    0.700056196267413    0.988528570191691  0.0000
  Si     Si        0.175415190759851    0.299107112251357    0.984103655035175  0.0000
  O1     O1        0.126458273301772    0.144114714173532    0.384831326206196  0.0000
  O1     O1        0.377639529684632    0.894108543137005    0.393094369008613  0.0000
  O1     O1        0.886676883323981    0.184582270515175    0.635852987676669  0.0000
  O3     O3        0.624184111075133    0.929364367400614    0.656344508974561  0.0000
  O3     O3        0.909226207026933    0.823049189930468    0.662287057133587  0.0000
  O3     O3        0.582218099084579    0.247080129606908    0.638001767858669  0.0000
  O1     O1        0.086496769998944    0.793592613880046    0.378475934103067  0.0000
  O1     O1        0.418506638041640    0.243799215398027    0.380231319463335  0.0000
  O1     O1        0.978921237042698    0.022690265754015    0.472115144724112  0.0000
  O3     O3        0.525355131371214    0.012916667560834    0.484400667727121  0.0000
  O1     O1        0.021449405891036    0.048499058739285    0.219901124609452  0.0000
  O1     O1        0.484865764038863    0.987774066481336    0.231290322613090  0.0000
  O1     O1        0.032277916395266    0.041477430814363    0.714415397458046  0.0000
  O3     O3        0.481241614392244    0.017363699455334    0.714822016176460  0.0000
  O1     O1        0.583198951177646    0.233437279891718    0.120793279356292  0.0000
  O1     O1        0.923168573126992    0.793770146137891    0.122253753383711  0.0000
  O1     O1        0.416946331094608    0.255267110951586    0.886312797892111  0.0000
  O3     O3        0.096829699715899    0.809886673241504    0.894303806840497  0.0000
  O1     O1        0.364577169461081    0.923869188519550    0.882923776004263  0.0000
  O3     O3        0.133504185995931    0.174236259399981    0.887732807269830  0.0000
  O1     O1        0.625818661809662    0.888284690656721    0.138250900083178  0.0000
  O1     O1        0.876260943252888    0.133440477557534    0.127498795883432  0.0000
  O1     O1        0.511890516619299    0.980501204359495    0.971614930262051  0.0000
  O1     O1        0.987683481999438    0.052118550294693    0.961130980481482  0.0000
  O1     O1        0.162272339940011    0.484224986039739    0.330266414593695  0.0000
  O1     O1        0.340877916154041    0.554610719821226    0.336637361734744  0.0000
  O3     O3        0.838324063203883    0.523214302764307    0.680681348241802  0.0000
  O1     O1        0.653863960202277    0.570541322749491    0.672322237968079  0.0000
  O1     O1        0.270589674770432    0.234850046645324    0.289902379121296  0.0000
  O1     O1        0.233908735601834    0.806528194716116    0.291753462245725  0.0000
  O1     O1        0.735845557481147    0.262568547060563    0.715498012040615  0.0000
  O3     O3        0.768223301479538    0.810244121499222    0.733667029451495  0.0000
  O3     O3        0.146685053790198    0.258242630595787    0.125454510819885  0.0000
  O1     O1        0.360961009023079    0.791723954341084    0.135340041202401  0.0000
  O1     O1        0.860022190945162    0.274011330722687    0.881466755989790  0.0000
  O1     O1        0.644453830296901    0.766915006927547    0.891105134480752  0.0000
  O3     O3        0.876710037342867    0.687725841517850    0.882704569128689  0.0000
  O1     O1        0.618536122202264    0.356385250558311    0.878491864496624  0.0000
  O3     O3        0.115540640867321    0.706365014190532    0.128931767372919  0.0000
  O1     O1        0.386088007251358    0.351982227156547    0.131926115287150  0.0000
  O1     O1        0.663070726742294    0.543558564391499    0.096081264718523  0.0000
  O1     O1        0.842029549284896    0.480969033077672    0.094645546829683  0.0000
  O1     O1        0.351904422188428    0.572463964128076    0.925926694709607  0.0000
  O2     O2        0.158072192268362    0.500597556417473    0.947902342263639  0.0000
  O1     O1        0.732863694052519    0.233762407092348    0.032620382897338  0.0000
  O1     O1        0.770586257424620    0.800430213942798    0.053994448304707  0.0000
  O3     O3        0.264766965783501    0.271242402619667    0.976396022972571  0.0000
  O3     O3        0.231422266893097    0.789156577227951    0.991208072835230  0.0000
