data_c00780.vasp
_audit_creation_method             Generated by GULP
_audit_author_name                 Salvador R. G. Balestra
_symmetry_space_group_name_H-M     'P 1             '
_symmetry_Int_Tables_number        1

loop_
_symmetry_equiv_pos_site_id
_symmetry_equiv_pos_as_xyz
_cell_length_a                       17.6518
_cell_length_b                        7.8403
_cell_length_c                       10.1034
_cell_angle_alpha                   91.8425
_cell_angle_beta                    89.9211
_cell_angle_gamma                   88.8194

loop_
_atom_site_label
_atom_site_type_symbol
_atom_site_fract_x
_atom_site_fract_y
_atom_site_fract_z
_atom_site_charge
  Ge     Ge        0.052090000000021    0.000000000000000    0.372269999999958  0.0000
  Ge     Ge        0.444769603590436    0.958801003762035    0.391204068006254  0.0000
  Ge     Ge        0.943611523783013    0.937078997162085    0.619965201961728  0.0000
  Ge     Ge        0.543393792242730    0.016495236910661    0.128380200478708  0.0000
  Ge     Ge        0.946401309120641    0.955881050533116    0.119501518917428  0.0000
  Ge     Ge        0.442643405035742    0.944126541178695    0.866610732355933  0.0000
  Ge     Ge        0.053456523311625    0.995662430528729    0.868382166033539  0.0000
  Ge     Ge        0.145851909029295    0.316392319562184    0.303203797174865  0.0000
  Ge     Ge        0.347620133486793    0.643399530396861    0.309423167890539  0.0000
  Ge     Ge        0.822689316199037    0.228135515714341    0.737615948149649  0.0000
  Ge     Ge        0.663944589736404    0.692062539925207    0.732917461048094  0.0000
  Ge     Ge        0.847473227593363    0.626791530779142    0.729832535651773  0.0000
  Ge     Ge        0.325955486539982    0.239848682008760    0.306603725999111  0.0000
  Ge     Ge        0.644625623010116    0.322453723843587    0.063580144553754  0.0000
  Ge     Ge        0.845283648879356    0.643279791235193    0.053570979139738  0.0000
  Ge     Ge        0.323531693632102    0.230485507668617    0.986063451556098  0.0000
  Ge     Ge        0.170155669154401    0.702959986376034    0.989142784728035  0.0000
  Ge     Ge        0.351181802372879    0.633863897578539    0.986382951941880  0.0000
  Ge     Ge        0.666483640392447    0.725872184645512    0.052468314919350  0.0000
  Ge     Ge        0.822258206421694    0.240786671248020    0.059208850997355  0.0000
  Si     Si        0.553847246420947    0.986825442528455    0.628579739336020  0.0000
  Si     Si        0.644226357108042    0.298173581467271    0.748004356606369  0.0000
  Si     Si        0.170502615260070    0.713303582195759    0.302901381150191  0.0000
  Si     Si        0.145660595224844    0.305198868738493    0.991962331694192  0.0000
  O1     O1        0.085405198567174    0.203292294314098    0.398062013998045  0.0000
  O1     O1        0.407369890025338    0.761023817567355    0.407879300232894  0.0000
  O1     O1        0.865263769378475    0.066372766041029    0.647241205969388  0.0000
  O3     O3        0.615462937374993    0.835303592800549    0.635717371955892  0.0000
  O1     O1        0.915040632959568    0.733045354507445    0.645172916525834  0.0000
  O2     O2        0.585301214896217    0.170702551415778    0.675887325110029  0.0000
  O3     O3        0.124185308156129    0.849032697042142    0.394646327703006  0.0000
  O1     O1        0.373356012099481    0.108807466704689    0.411639290089272  0.0000
  O1     O1        0.972323792621587    0.956599456279505    0.457824605346027  0.0000
  O3     O3        0.526981894747924    0.998315887765745    0.476798225660716  0.0000
  O1     O1        0.026151166186249    0.991457360418102    0.207427113053256  0.0000
  O1     O1        0.469040307860393    0.974180614309831    0.225741018327027  0.0000
  O1     O1        0.023758129225830    0.992537714298449    0.706172970171640  0.0000
  O3     O3        0.476467593179347    0.945977751683879    0.705293347565533  0.0000
  O1     O1        0.578271790544879    0.219395348190777    0.151709343777255  0.0000
  O1     O1        0.909349596318395    0.757947829763079    0.143695307276586  0.0000
  O1     O1        0.363530183779977    0.074643576232420    0.885596095961728  0.0000
  O1     O1        0.120992507309949    0.838466767416995    0.891379973523116  0.0000
  O1     O1        0.417397716037375    0.738882938041256    0.898598265562652  0.0000
  O3     O3        0.087804429090597    0.197708784903963    0.902858031555926  0.0000
  O1     O1        0.616627146871403    0.870631714782699    0.147947920587162  0.0000
  O1     O1        0.875933932926298    0.106991439861023    0.151718551965814  0.0000
  O1     O1        0.514807709912244    0.010188291176622    0.965395705034630  0.0000
  O1     O1        0.972570224598965    0.959406570059340    0.954704589249867  0.0000
  O3     O3        0.157007316647928    0.524671977169494    0.358074690470914  0.0000
  O1     O1        0.339686343355360    0.444867620144912    0.368083880143767  0.0000
  O1     O1        0.841682178752966    0.420071146941354    0.669239152290109  0.0000
  O3     O3        0.648299016437544    0.481052551566397    0.679981347895965  0.0000
  O1     O1        0.230624726699440    0.205911051968075    0.306248401330721  0.0000
  O3     O3        0.259545888850922    0.748548238689869    0.304281384744708  0.0000
  O3     O3        0.725484839692582    0.202739608610562    0.743236959822521  0.0000
  O1     O1        0.759240287532639    0.724973196932952    0.720741420964997  0.0000
  O3     O3        0.113738807838992    0.321799282935138    0.141177136981154  0.0000
  O1     O1        0.379746956653276    0.628831014692430    0.149011902566291  0.0000
  O1     O1        0.854020430372941    0.222509354316552    0.897937908978745  0.0000
  O1     O1        0.632976523788675    0.728953302523192    0.891763944197353  0.0000
  O1     O1        0.874731872020986    0.615019300601564    0.891933439772835  0.0000
  O3     O3        0.618912443941625    0.338191073769517    0.897794823581626  0.0000
  O3     O3        0.140326744406665    0.724558265249743    0.152401693818830  0.0000
  O1     O1        0.357941053819982    0.218190103345372    0.145053456909770  0.0000
  O1     O1        0.655457784462844    0.527104608142724    0.119291306324773  0.0000
  O1     O1        0.832002468162914    0.448609849378579    0.118380873277007  0.0000
  O1     O1        0.343038628131134    0.427945230669224    0.926944388687959  0.0000
  O3     O3        0.155761182593147    0.492527224312348    0.935861366830641  0.0000
  O1     O1        0.727329028250894    0.201884642441024    0.067792972626780  0.0000
  O1     O1        0.761659184726936    0.761927359786796    0.048361292239267  0.0000
  O3     O3        0.226459929911899    0.205590351777385    0.993664294692424  0.0000
  O1     O1        0.264860480234385    0.740031382551243    0.978333960172372  0.0000
