data_c00782.vasp
_audit_creation_method             Generated by GULP
_audit_author_name                 Salvador R. G. Balestra
_symmetry_space_group_name_H-M     'P 1             '
_symmetry_Int_Tables_number        1

loop_
_symmetry_equiv_pos_site_id
_symmetry_equiv_pos_as_xyz
_cell_length_a                       17.7349
_cell_length_b                        7.8317
_cell_length_c                       10.2248
_cell_angle_alpha                   92.1669
_cell_angle_beta                    89.7212
_cell_angle_gamma                   90.0788

loop_
_atom_site_label
_atom_site_type_symbol
_atom_site_fract_x
_atom_site_fract_y
_atom_site_fract_z
_atom_site_charge
  Ge     Ge        0.052090000000021    0.000000000000000    0.372269999999958  0.0000
  Ge     Ge        0.445075021689606    0.040337485802639    0.351370611361183  0.0000
  Ge     Ge        0.950291790845333    0.960162523784524    0.629012249103104  0.0000
  Ge     Ge        0.544098817189506    0.025634865108013    0.087128545755705  0.0000
  Ge     Ge        0.935966257170134    0.009394086673514    0.140123868658096  0.0000
  Ge     Ge        0.440870877868003    0.024081744426646    0.830061244510682  0.0000
  Ge     Ge        0.049009828321808    0.993883351813313    0.901159278052666  0.0000
  Ge     Ge        0.167420139981189    0.296815289770109    0.271110572107915  0.0000
  Ge     Ge        0.322853475946780    0.765886027815121    0.269624947938112  0.0000
  Ge     Ge        0.827932391941816    0.252411073372917    0.704135717177473  0.0000
  Ge     Ge        0.661537392366196    0.706352507901684    0.692616326947909  0.0000
  Ge     Ge        0.842659278769879    0.655105880853348    0.685390497710577  0.0000
  Ge     Ge        0.349231175059099    0.352188589227903    0.266280766996516  0.0000
  Ge     Ge        0.640969529729893    0.345095754215849    0.017234220353710  0.0000
  Ge     Ge        0.847340106345695    0.684022558384488    0.007931636336296  0.0000
  Ge     Ge        0.350348064692825    0.344736123577562    0.949449105416192  0.0000
  Ge     Ge        0.321265462088838    0.757619773794852    0.954403237544857  0.0000
  Ge     Ge        0.168913502868742    0.284007835410024    0.947033822005238  0.0000
  Ge     Ge        0.668058080889848    0.748927263167755    0.011690357091221  0.0000
  Ge     Ge        0.819744253391474    0.278217204110431    0.021088784781870  0.0000
  Si     Si        0.551737619836268    0.998331262044000    0.590670572117427  0.0000
  Si     Si        0.649455617947388    0.307748574677585    0.707437656700887  0.0000
  Si     Si        0.153524707023473    0.685679060053348    0.265657214970345  0.0000
  Si     Si        0.152423532603066    0.671145781489195    0.956501779865453  0.0000
  O1     O1        0.116680820582483    0.159542128090542    0.363825343056760  0.0000
  O1     O1        0.370349386013213    0.904411038150695    0.373479503507000  0.0000
  O1     O1        0.879765713552048    0.109555491561428    0.612021448123405  0.0000
  O3     O3        0.605251221981127    0.834494149912068    0.599350254817345  0.0000
  O1     O1        0.907475414131639    0.766331234918713    0.598184370317983  0.0000
  O2     O2        0.594127349375137    0.173436051695114    0.633841545672893  0.0000
  O3     O3        0.086128707604681    0.814697579398222    0.293452415964611  0.0000
  O1     O1        0.412667063153355    0.246635955103029    0.360653579834521  0.0000
  O1     O1        0.029304395574653    0.978655927692699    0.534227758488624  0.0000
  O3     O3        0.525313309579303    0.013110196541387    0.442175586122928  0.0000
  O1     O1        0.966818365040458    0.030380667295948    0.298707568064012  0.0000
  O1     O1        0.474475666566066    0.984700409283693    0.194216905470902  0.0000
  O1     O1        0.978674214510052    0.977791038096635    0.789630445850245  0.0000
  O3     O3        0.474399822405587    0.983927031447025    0.672529024356840  0.0000
  O1     O1        0.572236194542191    0.237156848164945    0.097943578134732  0.0000
  O1     O1        0.913366767449294    0.802343578630964    0.092233159559008  0.0000
  O1     O1        0.414556095031485    0.234824355055716    0.853986595765828  0.0000
  O3     O3        0.083382916498420    0.790284489957856    0.927172256605080  0.0000
  O1     O1        0.362558916567505    0.899068720455849    0.853554860357435  0.0000
  O1     O1        0.120363005681556    0.129317448073011    0.859616002702105  0.0000
  O1     O1        0.622140554182609    0.899041288331937    0.105581851833336  0.0000
  O1     O1        0.860527752878415    0.141595358392216    0.125780194507691  0.0000
  O1     O1        0.511447650062435    0.970835617115638    0.933052400493470  0.0000
  O1     O1        0.010461698575681    0.073706291206109    0.045026077558134  0.0000
  O3     O3        0.129822737086532    0.498688380702347    0.307923958584706  0.0000
  O1     O1        0.364057026823676    0.567737877657634    0.272875863716129  0.0000
  O1     O1        0.840455010998057    0.445998221022083    0.633651905767503  0.0000
  O3     O3        0.652859997449270    0.491059878503442    0.641631594848638  0.0000
  O1     O1        0.259618047179422    0.303815450429372    0.318481715373297  0.0000
  O3     O3        0.230747520375495    0.753354192832470    0.330796205636246  0.0000
  O3     O3        0.731054021940605    0.218808069528380    0.709221270110441  0.0000
  O1     O1        0.755621607494982    0.751647433348803    0.674483364271441  0.0000
  O1     O1        0.162474078276674    0.232575706998892    0.109452964450316  0.0000
  O1     O1        0.323435229107558    0.838928157894818    0.113000378701538  0.0000
  O1     O1        0.855812837311445    0.247427763557676    0.864962777293345  0.0000
  O1     O1        0.636393596358721    0.740132263466865    0.852205655340246  0.0000
  O1     O1        0.870993094319191    0.656090648553503    0.846444089693244  0.0000
  O3     O3        0.617167427532355    0.343164905694545    0.852327133716599  0.0000
  O2     O2        0.176665739383325    0.659888846871992    0.110893233157069  0.0000
  O1     O1        0.359895265883181    0.277646531954954    0.106767551488466  0.0000
  O1     O1        0.650796480179078    0.550062440201935    0.074726364288125  0.0000
  O1     O1        0.835840609964896    0.487042934309531    0.072708966993651  0.0000
  O1     O1        0.365015273321092    0.561259010544979    0.946743452714800  0.0000
  O3     O3        0.128690707147749    0.479997288712193    0.913853534991953  0.0000
  O1     O1        0.725033335355949    0.238203215754935    0.024649817126064  0.0000
  O1     O1        0.762474336601314    0.791412346693556    0.013627882789902  0.0000
  O1     O1        0.260488875018775    0.295268623960202    0.897520112298766  0.0000
  O3     O3        0.229805727467164    0.734136654363682    0.892948501326484  0.0000
