data_c00723.vasp
_audit_creation_method             Generated by GULP
_audit_author_name                 Salvador R. G. Balestra
_symmetry_space_group_name_H-M     'P 1             '
_symmetry_Int_Tables_number        1

loop_
_symmetry_equiv_pos_site_id
_symmetry_equiv_pos_as_xyz
_cell_length_a                       17.6404
_cell_length_b                        7.8313
_cell_length_c                       10.1758
_cell_angle_alpha                   91.1263
_cell_angle_beta                    89.8315
_cell_angle_gamma                   88.7495

loop_
_atom_site_label
_atom_site_type_symbol
_atom_site_fract_x
_atom_site_fract_y
_atom_site_fract_z
_atom_site_charge
  Ge     Ge        0.052090000000021    0.000000000000000    0.372269999999958  0.0000
  Ge     Ge        0.447234482699937    0.958262484846558    0.394429828987966  0.0000
  Ge     Ge        0.948671126770883    0.955524642400411    0.628576169302746  0.0000
  Ge     Ge        0.548449708416530    0.027632383209997    0.136190646946240  0.0000
  Ge     Ge        0.946448258501374    0.964468405310309    0.117023515138040  0.0000
  Ge     Ge        0.447324971891745    0.953748877698440    0.877708946757825  0.0000
  Ge     Ge        0.058300458307082    0.008362841408442    0.872454308576996  0.0000
  Ge     Ge        0.146873967264723    0.319117640503119    0.304826288731606  0.0000
  Ge     Ge        0.349468676044790    0.643554738362486    0.317158959407378  0.0000
  Ge     Ge        0.825785056505758    0.244594246102408    0.742929495044674  0.0000
  Ge     Ge        0.669830302363392    0.722910615858632    0.741914131545859  0.0000
  Ge     Ge        0.850693224740868    0.647849402747962    0.743383900227259  0.0000
  Ge     Ge        0.644290842672433    0.319995339324338    0.750922541618150  0.0000
  Ge     Ge        0.327112450595500    0.240852936104166    0.311796567836595  0.0000
  Ge     Ge        0.646979359293714    0.338548582075357    0.072691604861599  0.0000
  Ge     Ge        0.327512859672271    0.238666908118133    0.993760773320842  0.0000
  Ge     Ge        0.174742487216884    0.713485868131482    0.994597311398718  0.0000
  Ge     Ge        0.355453744372357    0.641363302028083    0.995613519463535  0.0000
  Ge     Ge        0.671144927930388    0.737451609543025    0.060802076949747  0.0000
  Ge     Ge        0.826780106116217    0.260393299790377    0.061453688481737  0.0000
  Si     Si        0.553541184603017    0.007198890742202    0.635069108967129  0.0000
  Si     Si        0.172740545799914    0.716776828258084    0.306935332965491  0.0000
  Si     Si        0.846901114259064    0.654968097933174    0.056542781896860  0.0000
  Si     Si        0.149597300238343    0.315435517466599    0.996297987398277  0.0000
  O1     O1        0.084703764127977    0.204562088849026    0.395037961276455  0.0000
  O1     O1        0.410651791572590    0.759465538539739    0.412174921408677  0.0000
  O1     O1        0.873109572729655    0.094078132370973    0.648995975832284  0.0000
  O3     O3        0.623493153715758    0.876271867925658    0.650750443543340  0.0000
  O1     O1        0.920997008642132    0.752973796373331    0.665956218513680  0.0000
  O3     O3        0.576573240228374    0.199104035535027    0.672053862902464  0.0000
  O3     O3        0.125477359851114    0.851440597240531    0.396072579087174  0.0000
  O1     O1        0.374544941766331    0.105403734303111    0.413933401489500  0.0000
  O1     O1        0.974901546266560    0.959587081152686    0.465117941842419  0.0000
  O3     O3        0.527247498927740    0.000231411090907    0.483558727737437  0.0000
  O1     O1        0.025227451869304    0.983614239815985    0.209838802075960  0.0000
  O1     O1        0.474563935330864    0.974800357208626    0.231434907220170  0.0000
  O1     O1        0.029820729789918    0.009230567016148    0.711100423791935  0.0000
  O3     O3        0.479684447945414    0.952546530631540    0.716636449341249  0.0000
  O1     O1        0.582400218818571    0.229893325633862    0.162526829005632  0.0000
  O3     O3        0.905849893165985    0.766002256715278    0.138123090072269  0.0000
  O1     O1        0.367753226425564    0.083251897572806    0.895113591726095  0.0000
  O1     O1        0.125715028587340    0.850980257959310    0.897502479295349  0.0000
  O1     O1        0.423710233837088    0.747910603241972    0.913026900115116  0.0000
  O3     O3        0.092439655624248    0.209991884728040    0.906378110395146  0.0000
  O1     O1        0.624830860909738    0.888220748843020    0.153693402880265  0.0000
  O1     O1        0.880751139620869    0.124694328593588    0.153379559681441  0.0000
  O1     O1        0.519330899925665    0.024084728842725    0.974263287620949  0.0000
  O1     O1        0.976118664338185    0.972018283307704    0.956033355124329  0.0000
  O3     O3        0.158446024383464    0.526370706903845    0.359820155050145  0.0000
  O1     O1        0.341115141546966    0.443952327751130    0.375365464828710  0.0000
  O1     O1        0.841216599509107    0.444479891286522    0.681590598883890  0.0000
  O1     O1        0.652480578471490    0.519200442537608    0.683957402705688  0.0000
  O1     O1        0.231756022146273    0.208041935045783    0.310023748872382  0.0000
  O3     O3        0.261923205092205    0.751195884479828    0.312713502441762  0.0000
  O1     O1        0.729837036085149    0.211647667559602    0.742221530440651  0.0000
  O1     O1        0.765398849192801    0.757182253567506    0.731436623527148  0.0000
  O3     O3        0.116027208914449    0.327394021650562    0.143372581178548  0.0000
  O1     O1        0.381356540252230    0.629507068914608    0.157817801285540  0.0000
  O1     O1        0.857270509275975    0.231356884299397    0.902004908213332  0.0000
  O1     O1        0.638546256968956    0.744909607905336    0.901359429661140  0.0000
  O3     O3        0.874502444988808    0.623557709111520    0.907024062010628  0.0000
  O1     O1        0.618725745761435    0.354909701478306    0.911160965278208  0.0000
  O3     O3        0.144969729773512    0.731763522302563    0.156371055875416  0.0000
  O1     O1        0.360748186521343    0.222762232326223    0.152282499503812  0.0000
  O1     O1        0.655326963396264    0.542545897456071    0.130693469917994  0.0000
  O3     O3        0.835887438686471    0.470902096311534    0.118427913613106  0.0000
  O1     O1        0.348001771652559    0.436660809407904    0.934862483226523  0.0000
  O3     O3        0.160739262435796    0.503727798344999    0.941349840486278  0.0000
  O1     O1        0.731775739351933    0.223767381041619    0.071792304822882  0.0000
  O3     O3        0.768057157626261    0.764091869734548    0.052384570341741  0.0000
  O3     O3        0.230345140769014    0.215019401997460    0.000301146999486  0.0000
  O1     O1        0.269693344392253    0.749786330431668    0.983901164722071  0.0000
