data_c00756.vasp
_audit_creation_method             Generated by GULP
_audit_author_name                 Salvador R. G. Balestra
_symmetry_space_group_name_H-M     'P 1             '
_symmetry_Int_Tables_number        1

loop_
_symmetry_equiv_pos_site_id
_symmetry_equiv_pos_as_xyz
_cell_length_a                       17.5673
_cell_length_b                        7.8119
_cell_length_c                       10.2016
_cell_angle_alpha                   90.5644
_cell_angle_beta                    91.0587
_cell_angle_gamma                   91.4471

loop_
_atom_site_label
_atom_site_type_symbol
_atom_site_fract_x
_atom_site_fract_y
_atom_site_fract_z
_atom_site_charge
  Ge     Ge        0.052090000000021    0.000000000000000    0.372269999999958  0.0000
  Ge     Ge        0.449589976696093    0.065727439827954    0.386926349039698  0.0000
  Ge     Ge        0.942325434026659    0.042756179659625    0.616677248913625  0.0000
  Ge     Ge        0.547363997625378    0.004340028122042    0.125616493454853  0.0000
  Ge     Ge        0.954895210779045    0.066536252588647    0.110486027717439  0.0000
  Ge     Ge        0.440454862407328    0.056719331432499    0.867557063555061  0.0000
  Ge     Ge        0.058412898405557    0.996905677279351    0.859463852789484  0.0000
  Ge     Ge        0.174062543530344    0.281769739769751    0.293934377140952  0.0000
  Ge     Ge        0.327740754385392    0.781652967134377    0.298040831213404  0.0000
  Ge     Ge        0.844765266787860    0.357637366344087    0.732952277779670  0.0000
  Ge     Ge        0.638095838301969    0.687368060558542    0.742436705455944  0.0000
  Ge     Ge        0.821869483052186    0.757358945100839    0.727328955323483  0.0000
  Ge     Ge        0.149310434994597    0.688964054353953    0.295683175559096  0.0000
  Ge     Ge        0.352878320568213    0.372469552508102    0.297696966280294  0.0000
  Ge     Ge        0.674134912201701    0.292851793029500    0.058866160273783  0.0000
  Ge     Ge        0.827354846243349    0.778892458618656    0.043751347016414  0.0000
  Ge     Ge        0.325549623063587    0.765693876147515    0.982167080865342  0.0000
  Ge     Ge        0.173884535349047    0.292276617784416    0.978093754426355  0.0000
  Ge     Ge        0.647027213077129    0.694654200546998    0.057237298481488  0.0000
  Ge     Ge        0.852010935046210    0.375954227939391    0.056795980781303  0.0000
  Si     Si        0.550193788373959    0.005516573089842    0.633837527260559  0.0000
  Si     Si        0.666053352020634    0.292967605748285    0.743662740288863  0.0000
  Si     Si        0.353009715760006    0.369581164885122    0.987238453760050  0.0000
  Si     Si        0.146809007575780    0.686577507554035    0.984280062345245  0.0000
  O1     O1        0.125459228976163    0.148427731804210    0.396323285640191  0.0000
  O1     O1        0.376957732574396    0.916385230044943    0.403867192828080  0.0000
  O1     O1        0.911758780990391    0.243786115178093    0.653571280829790  0.0000
  O3     O3        0.573790000091439    0.811052900455498    0.656005839039400  0.0000
  O1     O1        0.866597244514235    0.903893729134338    0.629845129937018  0.0000
  O2     O2        0.618817236598074    0.137759246645330    0.672962713418164  0.0000
  O1     O1        0.084730395790654    0.795755259027848    0.387735907343452  0.0000
  O1     O1        0.416687181469616    0.269658167289587    0.396787966884157  0.0000
  O1     O1        0.972165457015753    0.040636150380126    0.456106307402004  0.0000
  O3     O3        0.529403827408201    0.028918794229418    0.480911390885518  0.0000
  O1     O1        0.030306185477210    0.019955520863456    0.206617050777986  0.0000
  O1     O1        0.473984239229985    0.042435530511999    0.224271085038588  0.0000
  O1     O1        0.023969878159248    0.987697356093693    0.700706070173442  0.0000
  O3     O3        0.472822537844208    0.051318468286962    0.707848056455079  0.0000
  O1     O1        0.620245273450297    0.155194654058841    0.146635764503150  0.0000
  O1     O1        0.879193339423721    0.925897837206078    0.133370903986717  0.0000
  O3     O3        0.411319323196185    0.262346669761768    0.902625473863565  0.0000
  O3     O3        0.086285210820367    0.793053323438918    0.901961759860917  0.0000
  O1     O1        0.366030920990271    0.910801324960232    0.879567437202322  0.0000
  O1     O1        0.132697252167823    0.144326617993269    0.873370316022413  0.0000
  O1     O1        0.586005085854013    0.807023223522741    0.151504103001810  0.0000
  O1     O1        0.922271186609895    0.270226157768898    0.137415188896154  0.0000
  O1     O1        0.516069775285093    0.005808261110278    0.964490107609047  0.0000
  O1     O1        0.982517621117136    0.058311315513061    0.949093804523600  0.0000
  O1     O1        0.162738207310495    0.488609281205810    0.352225520596703  0.0000
  O1     O1        0.339446978659206    0.574609529176113    0.352511304468051  0.0000
  O1     O1        0.838019739093322    0.556434679941006    0.665536393781742  0.0000
  O3     O3        0.645739664553894    0.477338608143418    0.683663818742356  0.0000
  O1     O1        0.270148003398874    0.248624163314655    0.296524491416056  0.0000
  O1     O1        0.231672952219539    0.814239500711103    0.298750475394308  0.0000
  O3     O3        0.755001153227275    0.256921500096223    0.727616820779932  0.0000
  O1     O1        0.725687832435707    0.786044788773676    0.731149845946188  0.0000
  O1     O1        0.140823703056124    0.262771863640529    0.133515221707685  0.0000
  O1     O1        0.359540061346767    0.799878957779351    0.139203954596167  0.0000
  O1     O1        0.872336914644593    0.388212203536115    0.892602683701211  0.0000
  O1     O1        0.609035365566389    0.677175882102066    0.900073624198682  0.0000
  O1     O1        0.858269631841479    0.783620132656510    0.884107161439794  0.0000
  O3     O3        0.644545514203921    0.295394043634374    0.895620549709867  0.0000
  O3     O3        0.119359449165407    0.666606821104372    0.132766963391790  0.0000
  O3     O3        0.383553969427870    0.385942583462549    0.136681410625881  0.0000
  O1     O1        0.662686177748816    0.497947409037083    0.119789819955505  0.0000
  O1     O1        0.841286565538005    0.579491996487159    0.112215409743197  0.0000
  O3     O3        0.344764745103757    0.558959918557028    0.929955578518115  0.0000
  O3     O3        0.154588224655431    0.497332595127575    0.923585040316510  0.0000
  O1     O1        0.768996095496846    0.253278871674285    0.068728343895130  0.0000
  O1     O1        0.731440178075027    0.811697267153842    0.043662900125975  0.0000
  O3     O3        0.271476433791409    0.269905995955730    0.984793488212781  0.0000
  O3     O3        0.227951174141094    0.788073254855883    0.983536748038811  0.0000
