data_c00753.vasp
_audit_creation_method             Generated by GULP
_audit_author_name                 Salvador R. G. Balestra
_symmetry_space_group_name_H-M     'P 1             '
_symmetry_Int_Tables_number        1

loop_
_symmetry_equiv_pos_site_id
_symmetry_equiv_pos_as_xyz
_cell_length_a                       17.0014
_cell_length_b                        7.8923
_cell_length_c                       10.7141
_cell_angle_alpha                   96.3509
_cell_angle_beta                    90.9181
_cell_angle_gamma                   90.2169

loop_
_atom_site_label
_atom_site_type_symbol
_atom_site_fract_x
_atom_site_fract_y
_atom_site_fract_z
_atom_site_charge
  Ge     Ge        0.052090000000021    0.000000000000000    0.372269999999958  0.0000
  Ge     Ge        0.470683005643431    0.026001727058387    0.360006303178427  0.0000
  Ge     Ge        0.960230233664748    0.962444452598680    0.632039483107410  0.0000
  Ge     Ge        0.568280994256706    0.044042348942391    0.097091537023075  0.0000
  Ge     Ge        0.939908627872625    0.049232765699032    0.137167531611592  0.0000
  Ge     Ge        0.441698390447715    0.953047783382337    0.855568876623828  0.0000
  Ge     Ge        0.057243901636776    0.911049355681035    0.898097977618814  0.0000
  Ge     Ge        0.167343562839868    0.287642501221565    0.297756835810948  0.0000
  Ge     Ge        0.342825421724026    0.730558415631984    0.261223650723546  0.0000
  Ge     Ge        0.845657728727107    0.276071498303906    0.722908560300221  0.0000
  Ge     Ge        0.647342893556129    0.660870548392668    0.700224608104050  0.0000
  Ge     Ge        0.841393285925498    0.688254283189889    0.703632775254512  0.0000
  Ge     Ge        0.160600565738571    0.679632484384195    0.259765374241630  0.0000
  Ge     Ge        0.358725613337810    0.309709418370423    0.275893462544355  0.0000
  Ge     Ge        0.669958201106137    0.364513979049172    0.038208656363687  0.0000
  Ge     Ge        0.847151209987274    0.752989578133045    0.994443096033705  0.0000
  Ge     Ge        0.160171732402224    0.587138628617390    0.942598875453367  0.0000
  Ge     Ge        0.345862574656823    0.642417243123077    0.954380575569918  0.0000
  Ge     Ge        0.165388532328612    0.222863298495885    0.001959481872535  0.0000
  Ge     Ge        0.856230369888239    0.361407147132871    0.026345680018082  0.0000
  Si     Si        0.550157380867733    0.967175308510447    0.623403500439786  0.0000
  Si     Si        0.663829578382221    0.272211005745104    0.729190578894399  0.0000
  Si     Si        0.354284961733363    0.258044553062802    0.992871751029587  0.0000
  Si     Si        0.659678926525939    0.726630994221577    0.987570286009078  0.0000
  O1     O1        0.118606484816490    0.164053382783068    0.394174024235844  0.0000
  O1     O1        0.402058693577842    0.866415363151777    0.354815409307006  0.0000
  O1     O1        0.905270199766315    0.144352728333861    0.630663842180502  0.0000
  O3     O3        0.589201489775751    0.780300087026053    0.609640532817997  0.0000
  O1     O1        0.898008411865082    0.790477729237417    0.604078691427669  0.0000
  O2     O2        0.609134687040384    0.107340067344823    0.696619852936268  0.0000
  O1     O1        0.086159531577424    0.820176479817558    0.282560324999037  0.0000
  O1     O1        0.425212102590598    0.219984870705904    0.370719686597900  0.0000
  O1     O1        0.028525733465293    0.945385452102336    0.515859078245671  0.0000
  O3     O3        0.533313101742197    0.022200822845045    0.487494355541285  0.0000
  O1     O1        0.970112887041023    0.055382679028956    0.289354287352772  0.0000
  O1     O1        0.525269730984307    0.985709982433523    0.226557728115812  0.0000
  O1     O1        0.014236922674479    0.978348754309431    0.769900502325970  0.0000
  O3     O3        0.471048039954620    0.964555086064653    0.703222520900955  0.0000
  O1     O1        0.609733176434579    0.243361946994433    0.118491312906211  0.0000
  O1     O1        0.855820147184432    0.920965267439435    0.106353401765367  0.0000
  O3     O3        0.365245683738701    0.101160972929910    0.888487761890671  0.0000
  O1     O1        0.088481144988685    0.702856573595761    0.879068337359542  0.0000
  O1     O1        0.406487643872275    0.753138839324401    0.864306776471381  0.0000
  O1     O1        0.144081091405281    0.026163400015067    0.929640503783813  0.0000
  O3     O3        0.647740113754600    0.902695041092259    0.070084793655841  0.0000
  O1     O1        0.923276592818925    0.254196438584618    0.110687546229203  0.0000
  O1     O1        0.512244712946906    0.025849189659463    0.962971853048372  0.0000
  O1     O1        0.998999277037310    0.934091428772488    0.028009350351544  0.0000
  O1     O1        0.150945111496114    0.500656491727575    0.337893215789389  0.0000
  O1     O1        0.362975455805357    0.525387230464577    0.291799266158972  0.0000
  O1     O1        0.870038325749064    0.482016259976352    0.704259537368054  0.0000
  O3     O3        0.629618660108783    0.442611987084416    0.677378791182100  0.0000
  O1     O1        0.265979206823425    0.240918787410969    0.305489495550198  0.0000
  O1     O1        0.248176550982047    0.779252477737817    0.304321670019220  0.0000
  O3     O3        0.749260491211031    0.235824323161060    0.671335149662673  0.0000
  O1     O1        0.743453661652239    0.701522949697443    0.667275934410011  0.0000
  O1     O1        0.126930575432407    0.223093208675754    0.150304055622200  0.0000
  O1     O1        0.353520122805322    0.749064112926896    0.103459943470983  0.0000
  O1     O1        0.856503559990806    0.249196018635323    0.878746709738482  0.0000
  O3     O3        0.618343443482520    0.733402363044485    0.851317388282411  0.0000
  O1     O1        0.872091273123337    0.797806566467804    0.846428000190871  0.0000
  O3     O3        0.675905614713638    0.302431496812772    0.878683005849034  0.0000
  O1     O1        0.171182590239189    0.604479441215568    0.104516310570981  0.0000
  O3     O3        0.393683818291005    0.228182526190332    0.126907824352369  0.0000
  O3     O3        0.628754463378519    0.567361515881829    0.055477481514856  0.0000
  O1     O1        0.890395893219355    0.566994182561403    0.031417519143617  0.0000
  O3     O3        0.383030664467197    0.436589143508150    0.949581815271944  0.0000
  O1     O1        0.131804486106462    0.376331221560463    0.912411263693728  0.0000
  O1     O1        0.764925398255009    0.355976813600679    0.093708278127875  0.0000
  O3     O3        0.750880205250173    0.678034749074341    0.959251569578424  0.0000
  O3     O3        0.262576609554225    0.286121232194708    0.030197746398343  0.0000
  O1     O1        0.252245259649704    0.637213656876608    0.891422366767550  0.0000
