data_c00717.vasp
_audit_creation_method             Generated by GULP
_audit_author_name                 Salvador R. G. Balestra
_symmetry_space_group_name_H-M     'P 1             '
_symmetry_Int_Tables_number        1

loop_
_symmetry_equiv_pos_site_id
_symmetry_equiv_pos_as_xyz
_cell_length_a                       17.6276
_cell_length_b                        7.7979
_cell_length_c                       10.2245
_cell_angle_alpha                   91.1071
_cell_angle_beta                    90.2217
_cell_angle_gamma                   90.9007

loop_
_atom_site_label
_atom_site_type_symbol
_atom_site_fract_x
_atom_site_fract_y
_atom_site_fract_z
_atom_site_charge
  Ge     Ge        0.052090000000021    0.000000000000000    0.372269999999958  0.0000
  Ge     Ge        0.444538124224345    0.050159827313032    0.377875371748897  0.0000
  Ge     Ge        0.943115113118933    0.040751448735461    0.619350942657483  0.0000
  Ge     Ge        0.553151480009536    0.001411729862357    0.131300899466305  0.0000
  Ge     Ge        0.939697414769809    0.057147680734863    0.131521551399659  0.0000
  Ge     Ge        0.443042743703316    0.049097395798668    0.881966610380393  0.0000
  Ge     Ge        0.043476301623931    0.982770772463244    0.878764959810987  0.0000
  Ge     Ge        0.169597006673438    0.292080596946115    0.266492051711900  0.0000
  Ge     Ge        0.322171399724063    0.767542300221659    0.263077608922118  0.0000
  Ge     Ge        0.842792409129973    0.355850275308207    0.691934303736403  0.0000
  Ge     Ge        0.638754233519285    0.686502782721863    0.696938243292872  0.0000
  Ge     Ge        0.818511276056022    0.761876251972905    0.692742108296670  0.0000
  Ge     Ge        0.661802415614556    0.279674228814338    0.700968694265069  0.0000
  Ge     Ge        0.350496543685749    0.363434960519567    0.263133906267486  0.0000
  Ge     Ge        0.668453391909965    0.293230412706370    0.017361708378182  0.0000
  Ge     Ge        0.819428850391719    0.773254701047877    0.010513609439451  0.0000
  Ge     Ge        0.145700043007508    0.672710777103889    0.937829402676367  0.0000
  Ge     Ge        0.323450799697279    0.754527663610364    0.945869709238848  0.0000
  Ge     Ge        0.167326028136095    0.270781378155004    0.951715303432607  0.0000
  Ge     Ge        0.849128348490177    0.370063212344938    0.011162783136492  0.0000
  Si     Si        0.543001512720566    0.998311322902898    0.629887698336894  0.0000
  Si     Si        0.146031627060202    0.688456291111576    0.252641551450707  0.0000
  Si     Si        0.343028377011811    0.355312773081861    0.952283564826692  0.0000
  Si     Si        0.643275699278859    0.690641500064107    0.007210212046481  0.0000
  O1     O1        0.121273249316616    0.155071391906870    0.366057141379765  0.0000
  O1     O1        0.365069247175601    0.923356655601904    0.357227706468618  0.0000
  O1     O1        0.906364485121334    0.241427571945807    0.599893805868665  0.0000
  O3     O3        0.572133760370213    0.804373630994707    0.613820102227715  0.0000
  O1     O1        0.870061151113288    0.894469152268182    0.595214515383950  0.0000
  O3     O3        0.611611536793483    0.132446455462593    0.604424796437145  0.0000
  O3     O3        0.082108214112469    0.798234498908886    0.325074754919565  0.0000
  O1     O1        0.420364012249064    0.256952389814503    0.342754440323218  0.0000
  O1     O1        0.022463602123420    0.994137394824731    0.533028374183700  0.0000
  O3     O3        0.470954400605063    0.034606872821281    0.541112593073250  0.0000
  O1     O1        0.970263638114544    0.051246753798236    0.290851680586733  0.0000
  O1     O1        0.521710849469943    0.987709126385222    0.289464970990085  0.0000
  O1     O1        0.968844452931931    0.030267675819652    0.783267662160338  0.0000
  O3     O3        0.519595468292292    0.028156868460737    0.781373762698131  0.0000
  O1     O1        0.622929257580211    0.156047146386346    0.120385315038595  0.0000
  O1     O1        0.860033545904047    0.929954471356654    0.106676252405300  0.0000
  O3     O3        0.399926159733023    0.246426261151870    0.863756109105843  0.0000
  O1     O1        0.077258211044214    0.778166362718448    0.854995678814535  0.0000
  O1     O1        0.378485218343263    0.884913913600158    0.852351755111289  0.0000
  O1     O1        0.119651821475637    0.121832465304143    0.858922047878898  0.0000
  O3     O3        0.582631500600545    0.797331911080078    0.088608415369085  0.0000
  O1     O1        0.917234443712284    0.264937201913868    0.095807173542048  0.0000
  O1     O1        0.475155880924370    0.050628594064633    0.040346131661502  0.0000
  O1     O1        0.014415690140842    0.988769603633454    0.039513725976330  0.0000
  O3     O3        0.156299839601926    0.504104789925700    0.317696350574794  0.0000
  O1     O1        0.342704589240016    0.569296913409822    0.322900450134025  0.0000
  O1     O1        0.829078564955128    0.555279547957637    0.632455203343898  0.0000
  O1     O1        0.646090663789874    0.481216427402785    0.638521078884180  0.0000
  O1     O1        0.265084634275172    0.255766375705145    0.276300415842439  0.0000
  O3     O3        0.224811357571844    0.796247374925279    0.261395533031482  0.0000
  O1     O1        0.757380752306193    0.243604058760791    0.695455553757492  0.0000
  O1     O1        0.722909056248684    0.799592803519791    0.688930467160452  0.0000
  O1     O1        0.135641329131611    0.255984225837828    0.110716518684713  0.0000
  O1     O1        0.353183480291917    0.786140006571334    0.104765158595514  0.0000
  O1     O1        0.875188197639097    0.381296501470608    0.849962203203650  0.0000
  O3     O3        0.613499146495640    0.663273585669370    0.859412805686838  0.0000
  O1     O1        0.850975381474838    0.783735353511366    0.851816960715802  0.0000
  O1     O1        0.633720087548555    0.265795422860673    0.861559324524442  0.0000
  O3     O3        0.124073677454576    0.651139465854539    0.102714391048760  0.0000
  O3     O3        0.374067389387080    0.382821026300126    0.099614350888735  0.0000
  O3     O3        0.656278881307278    0.505829675916944    0.068782278885660  0.0000
  O1     O1        0.840279575385630    0.575472177897830    0.071393030592826  0.0000
  O3     O3        0.329987104225317    0.540866098897611    0.893514350732546  0.0000
  O1     O1        0.151443631757217    0.466649851656266    0.882039044193422  0.0000
  O1     O1        0.764020736148390    0.258874300460064    0.019736870434767  0.0000
  O3     O3        0.722024881108763    0.798784014082896    0.005443726349411  0.0000
  O3     O3        0.264542303533842    0.245413104569592    0.960293947052419  0.0000
  O1     O1        0.228465339753519    0.792556153341882    0.930017040621236  0.0000
