data_c00736.vasp
_audit_creation_method             Generated by GULP
_audit_author_name                 Salvador R. G. Balestra
_symmetry_space_group_name_H-M     'P 1             '
_symmetry_Int_Tables_number        1

loop_
_symmetry_equiv_pos_site_id
_symmetry_equiv_pos_as_xyz
_cell_length_a                       17.5969
_cell_length_b                        7.8353
_cell_length_c                       10.1591
_cell_angle_alpha                   89.7242
_cell_angle_beta                    90.6108
_cell_angle_gamma                   91.1656

loop_
_atom_site_label
_atom_site_type_symbol
_atom_site_fract_x
_atom_site_fract_y
_atom_site_fract_z
_atom_site_charge
  Ge     Ge        0.052090000000021    0.000000000000000    0.372269999999958  0.0000
  Ge     Ge        0.437054739720105    0.052577332285029    0.370903423545327  0.0000
  Ge     Ge        0.942979218579167    0.056947158457767    0.616004581812450  0.0000
  Ge     Ge        0.547004193085561    0.002477644460598    0.124530537297510  0.0000
  Ge     Ge        0.938377263705172    0.056662856036665    0.129195320222197  0.0000
  Ge     Ge        0.442995248414779    0.062750784171715    0.866102722388257  0.0000
  Ge     Ge        0.043961237231561    0.006984244388209    0.878348192069434  0.0000
  Ge     Ge        0.168192126488514    0.296979374575969    0.254916318722671  0.0000
  Ge     Ge        0.321608833720933    0.758383635636295    0.258558363476824  0.0000
  Ge     Ge        0.842812025364595    0.368763736066553    0.683397226964825  0.0000
  Ge     Ge        0.637129646835642    0.697274996703771    0.684903637950155  0.0000
  Ge     Ge        0.818777255476307    0.772176478140640    0.687277402848521  0.0000
  Ge     Ge        0.661064222869378    0.294588606198583    0.688724297618084  0.0000
  Ge     Ge        0.667149048678543    0.287263433084534    0.008529978086531  0.0000
  Ge     Ge        0.817949257338124    0.773853461114750    0.006342834660485  0.0000
  Ge     Ge        0.339991927448820    0.368060573242763    0.936295288756188  0.0000
  Ge     Ge        0.142073313181800    0.692001582986425    0.944009528315072  0.0000
  Ge     Ge        0.322167345890413    0.772413680831630    0.942323750134155  0.0000
  Ge     Ge        0.637363095256398    0.688761973867609    0.003875558838577  0.0000
  Ge     Ge        0.847603641377183    0.370545333947777    0.003736491004720  0.0000
  Si     Si        0.543123003774235    0.011130474597902    0.616923092399082  0.0000
  Si     Si        0.142356008540043    0.690866260179491    0.254757903470518  0.0000
  Si     Si        0.345723809043180    0.363733780638750    0.251209231062612  0.0000
  Si     Si        0.164183630128137    0.293685181616495    0.943413464152983  0.0000
  O1     O1        0.123474944639006    0.149060589507490    0.350295728965865  0.0000
  O1     O1        0.364612470445155    0.904058513660526    0.360352902669647  0.0000
  O1     O1        0.905665942441885    0.255727511898114    0.591566205280569  0.0000
  O3     O3        0.574056919947341    0.821837728154502    0.595114388051026  0.0000
  O1     O1        0.870409521621573    0.909768570017660    0.591038600471951  0.0000
  O3     O3        0.610307249683776    0.149621331171489    0.592380916191137  0.0000
  O3     O3        0.083928976986151    0.797310337365067    0.340424319707365  0.0000
  O3     O3        0.407464936158172    0.255301298574864    0.330232089176078  0.0000
  O1     O1        0.023953771946438    0.011672237807339    0.534069016019919  0.0000
  O3     O3        0.468090839108012    0.051478580728789    0.534090349994207  0.0000
  O1     O1        0.969481338261186    0.047041714021339    0.290097613205839  0.0000
  O1     O1        0.515638578605180    0.001805626300522    0.283711074084475  0.0000
  O1     O1        0.967980028824274    0.049020736147175    0.781907157548276  0.0000
  O3     O3        0.520534519880513    0.026850526022646    0.771054230784876  0.0000
  O1     O1        0.624526180949103    0.136747566207257    0.106263075837071  0.0000
  O1     O1        0.861403297408784    0.922454698924640    0.105422138044215  0.0000
  O1     O1        0.401973746964363    0.258619834673820    0.843307249105345  0.0000
  O1     O1        0.080195497155296    0.806786641843583    0.850927637145276  0.0000
  O1     O1        0.372698840763219    0.909672910528951    0.845249925328689  0.0000
  O3     O3        0.115277695144522    0.162316347404379    0.856774797599842  0.0000
  O1     O1        0.570617126831023    0.796047090772115    0.088915155567250  0.0000
  O1     O1        0.914356787959595    0.263322788593609    0.092891326823472  0.0000
  O1     O1        0.472905881543012    0.066595572437329    0.027517775177176  0.0000
  O1     O1        0.015155070182357    0.998627345256495    0.039264077166556  0.0000
  O3     O3        0.150131242225739    0.500376067778977    0.312129037892924  0.0000
  O3     O3        0.339257937337093    0.551841237170260    0.311893109756274  0.0000
  O1     O1        0.830244493413024    0.570049726613256    0.624260803879999  0.0000
  O1     O1        0.646342626030432    0.496079628811124    0.623533101389478  0.0000
  O3     O3        0.264760505197588    0.264089999373839    0.260207530657749  0.0000
  O3     O3        0.224416937787822    0.786407742958542    0.256538326657915  0.0000
  O1     O1        0.756709775760952    0.258048088312247    0.685196353469640  0.0000
  O1     O1        0.722910860672626    0.807514542153561    0.686298678322271  0.0000
  O3     O3        0.136053271949207    0.277934175646155    0.094197571132005  0.0000
  O1     O1        0.355404891558998    0.790937797429256    0.102621663499044  0.0000
  O1     O1        0.875513944638825    0.389195339772975    0.842874627315473  0.0000
  O1     O1        0.606753321658289    0.668913361485185    0.843293508327658  0.0000
  O1     O1        0.851164061629412    0.788198237636593    0.847779753254570  0.0000
  O1     O1        0.632054512179161    0.280679407966210    0.849625343838560  0.0000
  O3     O3        0.111785571495944    0.678599995788515    0.105825464599099  0.0000
  O3     O3        0.369174010257481    0.384855212963473    0.099775326564109  0.0000
  O1     O1        0.651185806399242    0.489396742557413    0.068227452722557  0.0000
  O1     O1        0.835114428360907    0.571062856382963    0.065191260015263  0.0000
  O1     O1        0.333383820973892    0.570452408134490    0.879297746835559  0.0000
  O3     O3        0.152351636668926    0.486201892060961    0.889225852826393  0.0000
  O1     O1        0.763087405770873    0.255579765662583    0.006402018379884  0.0000
  O1     O1        0.721814843691931    0.803996458734044    0.004190494760371  0.0000
  O3     O3        0.253366848135451    0.256830560848854    0.937038593500343  0.0000
  O1     O1        0.226548947640726    0.805298412715612    0.942241472694053  0.0000
