data_c00763.vasp
_audit_creation_method             Generated by GULP
_audit_author_name                 Salvador R. G. Balestra
_symmetry_space_group_name_H-M     'P 1             '
_symmetry_Int_Tables_number        1

loop_
_symmetry_equiv_pos_site_id
_symmetry_equiv_pos_as_xyz
_cell_length_a                       17.5807
_cell_length_b                        7.8439
_cell_length_c                       10.1806
_cell_angle_alpha                   90.3243
_cell_angle_beta                    91.0058
_cell_angle_gamma                   91.8472

loop_
_atom_site_label
_atom_site_type_symbol
_atom_site_fract_x
_atom_site_fract_y
_atom_site_fract_z
_atom_site_charge
  Ge     Ge        0.052090000000021    0.000000000000000    0.372269999999958  0.0000
  Ge     Ge        0.453181187813896    0.060952492366577    0.335187432715297  0.0000
  Ge     Ge        0.941270691306147    0.038395134087678    0.617595805483186  0.0000
  Ge     Ge        0.550826385556925    0.984383247017488    0.071717766476917  0.0000
  Ge     Ge        0.940408894075589    0.036625417260394    0.124163607807478  0.0000
  Ge     Ge        0.440168965872619    0.042427714954551    0.818188678486116  0.0000
  Ge     Ge        0.044721294732065    0.976792673118175    0.874165767011254  0.0000
  Ge     Ge        0.173882253349488    0.285964916715009    0.261955038775784  0.0000
  Ge     Ge        0.327467431718957    0.773797959057584    0.254635893000318  0.0000
  Ge     Ge        0.839009281373031    0.346651903721130    0.683176212383296  0.0000
  Ge     Ge        0.636390645105109    0.678371903449376    0.700520303533565  0.0000
  Ge     Ge        0.821177612739147    0.749056782528662    0.692930984981200  0.0000
  Ge     Ge        0.146220776218238    0.686693784258304    0.254429538628102  0.0000
  Ge     Ge        0.354939587586495    0.370673842937948    0.260436794286753  0.0000
  Ge     Ge        0.826740174744596    0.736498320164674    0.008080992322406  0.0000
  Ge     Ge        0.351923960195875    0.356451790102892    0.941598149245204  0.0000
  Ge     Ge        0.141806688993403    0.663715035209445    0.935846094180341  0.0000
  Ge     Ge        0.321953854764591    0.759621715357270    0.936901075150289  0.0000
  Ge     Ge        0.170924494783608    0.265502695924685    0.943904193270539  0.0000
  Ge     Ge        0.641161633845606    0.661038130932316    0.013088796120309  0.0000
  Si     Si        0.548580952914110    0.991919220569366    0.586031269694216  0.0000
  Si     Si        0.662893094589359    0.286299289862811    0.697081941538547  0.0000
  Si     Si        0.672475890539995    0.278215438715193    0.008689999936590  0.0000
  Si     Si        0.847412222240726    0.343441909230617    0.001883841884198  0.0000
  O1     O1        0.127576545472873    0.141261217222493    0.359907463779574  0.0000
  O1     O1        0.378776974579012    0.915531613203335    0.351534857935088  0.0000
  O1     O1        0.903023306205551    0.235612416345009    0.596335848503172  0.0000
  O3     O3        0.576171101030752    0.801267645770324    0.606169390614112  0.0000
  O1     O1        0.867891812144221    0.890656484226278    0.593591372019889  0.0000
  O2     O2        0.611349419763982    0.131137223960501    0.639245730349100  0.0000
  O1     O1        0.079424710646212    0.797274295706092    0.336961937967568  0.0000
  O1     O1        0.419641809049600    0.261888947377652    0.353562802052016  0.0000
  O1     O1        0.021367677578369    0.003642064477928    0.532584163570676  0.0000
  O3     O3        0.531713921399209    0.020173752274242    0.432357573514433  0.0000
  O1     O1        0.972547447831403    0.056047832321387    0.283751514204863  0.0000
  O1     O1        0.482394367592899    0.045370600811797    0.174159225916172  0.0000
  O1     O1        0.968040479925505    0.025338900459504    0.781548513584074  0.0000
  O3     O3        0.469309868767841    0.025430090327957    0.656633732328279  0.0000
  O3     O3        0.630469458134868    0.124070623361390    0.077795308690369  0.0000
  O1     O1        0.869235614813218    0.882737403647529    0.112514186748679  0.0000
  O1     O1        0.416353694545180    0.248602786565845    0.851305885458438  0.0000
  O1     O1        0.076552466718333    0.773975615173937    0.846761130861148  0.0000
  O1     O1        0.362329196244098    0.908392417715854    0.836115901235713  0.0000
  O1     O1        0.120813711022248    0.117593382431390    0.852335290556286  0.0000
  O1     O1        0.584437654956364    0.785475149459159    0.106787176508699  0.0000
  O3     O3        0.909533764540722    0.234314812526236    0.074687341277789  0.0000
  O1     O1        0.515096954894135    0.981871671075192    0.914131299308240  0.0000
  O1     O1        0.018295221015482    0.983125828992824    0.036775892993515  0.0000
  O1     O1        0.160607510460184    0.489165168710399    0.320863384338420  0.0000
  O1     O1        0.342463628065465    0.572308654132866    0.316341486142989  0.0000
  O1     O1        0.836279641875068    0.549542404864051    0.628510226324764  0.0000
  O3     O3        0.641572704300132    0.469764587346233    0.639528112830525  0.0000
  O1     O1        0.269939359578793    0.254315108967194    0.260612155890749  0.0000
  O1     O1        0.231191403411096    0.804473362553880    0.256234380771633  0.0000
  O3     O3        0.749465161555082    0.246513411773935    0.668029581150306  0.0000
  O1     O1        0.725024814301280    0.775095887175772    0.696759509500057  0.0000
  O1     O1        0.139660411598701    0.260054684257722    0.103498473138454  0.0000
  O1     O1        0.358315811559454    0.785404776381231    0.094667894912012  0.0000
  O3     O3        0.864691375245673    0.353166966175495    0.848052162589247  0.0000
  O1     O1        0.602842703435546    0.668708446296527    0.856010525624667  0.0000
  O1     O1        0.858066446176835    0.768378729292316    0.850882690036316  0.0000
  O2     O2        0.650693052140024    0.299653593838636    0.854273365588402  0.0000
  O1     O1        0.114717455373274    0.647130777762900    0.097048210292741  0.0000
  O1     O1        0.384791927797470    0.381511010545384    0.100374072127906  0.0000
  O3     O3        0.647420986462986    0.456281301046487    0.073149091415271  0.0000
  O3     O3        0.849143972982169    0.533139075916505    0.060435756921823  0.0000
  O1     O1        0.338287782442157    0.556189843487799    0.880296913890696  0.0000
  O1     O1        0.154781420167313    0.464068896536321    0.876483292576770  0.0000
  O2     O2        0.763257774747113    0.255869755031833    0.022575384020090  0.0000
  O1     O1        0.730452339470724    0.754348564292352    0.005627145139947  0.0000
  O1     O1        0.267258805023086    0.238582577378769    0.942929064139083  0.0000
  O1     O1        0.225910265074529    0.783822503640446    0.940587816015285  0.0000
