data_c00718.vasp
_audit_creation_method             Generated by GULP
_audit_author_name                 Salvador R. G. Balestra
_symmetry_space_group_name_H-M     'P 1             '
_symmetry_Int_Tables_number        1

loop_
_symmetry_equiv_pos_site_id
_symmetry_equiv_pos_as_xyz
_cell_length_a                       17.5901
_cell_length_b                        7.8976
_cell_length_c                       10.3126
_cell_angle_alpha                   91.6044
_cell_angle_beta                    89.8723
_cell_angle_gamma                   90.6460

loop_
_atom_site_label
_atom_site_type_symbol
_atom_site_fract_x
_atom_site_fract_y
_atom_site_fract_z
_atom_site_charge
  Ge     Ge        0.052090000000021    0.000000000000000    0.372269999999958  0.0000
  Ge     Ge        0.444936258202465    0.029190349512992    0.351377463848998  0.0000
  Ge     Ge        0.949043821723697    0.027125537417497    0.627647084225794  0.0000
  Ge     Ge        0.547952079418395    0.989293399398668    0.090557807236364  0.0000
  Ge     Ge        0.941435847036705    0.034342913548066    0.130631712256876  0.0000
  Ge     Ge        0.440338567106475    0.001621692301569    0.835659637996449  0.0000
  Ge     Ge        0.052420387024380    0.972500640982988    0.885590044100413  0.0000
  Ge     Ge        0.163112451127210    0.297153261604655    0.265140318707867  0.0000
  Ge     Ge        0.330294774987784    0.738318906253751    0.253166225225242  0.0000
  Ge     Ge        0.847283692319110    0.342807430312693    0.691774849140369  0.0000
  Ge     Ge        0.641739302925309    0.679842078931734    0.705080635195027  0.0000
  Ge     Ge        0.825122680674541    0.744081561609703    0.700313754019644  0.0000
  Ge     Ge        0.664949531431969    0.278446821246979    0.700248513853536  0.0000
  Ge     Ge        0.344893287131874    0.329062056375744    0.269624797254489  0.0000
  Ge     Ge        0.670354694844662    0.271775845591845    0.016494434756626  0.0000
  Ge     Ge        0.824411577701136    0.747569540274663    0.013440427257937  0.0000
  Ge     Ge        0.151717344862408    0.656553398583635    0.934417671993458  0.0000
  Ge     Ge        0.338156272438451    0.691899120013893    0.937308110867833  0.0000
  Ge     Ge        0.643238187447208    0.669632050393930    0.017722681044139  0.0000
  Ge     Ge        0.851235012197042    0.346028806718351    0.009240920190998  0.0000
  Si     Si        0.548562497843883    0.989368137199159    0.595655246554757  0.0000
  Si     Si        0.152079181841428    0.696818168743461    0.245163096531162  0.0000
  Si     Si        0.342050090485456    0.301609950281851    0.967463890385508  0.0000
  Si     Si        0.159774522910987    0.273004912029583    0.965171330140433  0.0000
  O1     O1        0.110903230514885    0.173506281615931    0.365558432691263  0.0000
  O1     O1        0.375660412210298    0.874785456935443    0.358474659957922  0.0000
  O1     O1        0.911233091147313    0.223880990159628    0.604313402189938  0.0000
  O3     O3        0.575864462960464    0.801734640878601    0.626755906654425  0.0000
  O1     O1        0.875837317242047    0.881993031886088    0.608765171794562  0.0000
  O3     O3        0.616386646253040    0.124313441936682    0.611415819546610  0.0000
  O3     O3        0.093123468377037    0.810611998791547    0.325396647486092  0.0000
  O1     O1        0.404260215472301    0.224191070428593    0.371077576991933  0.0000
  O1     O1        0.025237902799890    0.981860928351343    0.532104603721836  0.0000
  O3     O3        0.522243652368272    0.992838959058967    0.446315770499587  0.0000
  O1     O1        0.969488514661376    0.033361488052716    0.289684518493504  0.0000
  O1     O1        0.474465055867102    0.022533370679890    0.191792378414775  0.0000
  O1     O1        0.980469690524912    0.024970747332221    0.786919724508562  0.0000
  O3     O3        0.474295397781781    0.037791867475859    0.680604546512580  0.0000
  O1     O1        0.622338315566804    0.131890826783224    0.109834474031527  0.0000
  O1     O1        0.864651929095618    0.900340223939072    0.111611751954294  0.0000
  O3     O3        0.372227552312498    0.152314382687224    0.875885553757810  0.0000
  O1     O1        0.092180523464679    0.779008474407264    0.847454264051049  0.0000
  O1     O1        0.393373881436958    0.810617499708170    0.837690052652075  0.0000
  O3     O3        0.129454444833105    0.116202945109482    0.880621590316590  0.0000
  O1     O1        0.581232587570867    0.787422401576389    0.109125754793653  0.0000
  O1     O1        0.918270619513903    0.237638877903985    0.091359817458838  0.0000
  O1     O1        0.518029428500277    0.012558298910762    0.932483068758305  0.0000
  O1     O1        0.016989813806998    0.964001122693574    0.039891144873582  0.0000
  O3     O3        0.156936159510500    0.511291404254008    0.305376809523288  0.0000
  O1     O1        0.344281278271102    0.538816074063114    0.309868926269958  0.0000
  O1     O1        0.837676470062599    0.542344678623385    0.635328174674523  0.0000
  O1     O1        0.649103970533199    0.477141854580284    0.640578034952795  0.0000
  O1     O1        0.255829250031216    0.240624398456715    0.281678642057567  0.0000
  O3     O3        0.234657231094273    0.786157418892522    0.250863619746252  0.0000
  O1     O1        0.760408091787465    0.239183895814666    0.690627717892505  0.0000
  O1     O1        0.728879669366930    0.780561411588592    0.700778192623320  0.0000
  O3     O3        0.125989134000632    0.259976004842596    0.110400443306123  0.0000
  O1     O1        0.361667093812678    0.747775807634723    0.095081893303973  0.0000
  O1     O1        0.877331330350148    0.363052392415343    0.850140456672441  0.0000
  O1     O1        0.610132049974085    0.655987895347303    0.860422944963021  0.0000
  O1     O1        0.858861314952412    0.760481381036441    0.857237269392118  0.0000
  O1     O1        0.637387083972297    0.269675635240489    0.859237657045060  0.0000
  O3     O3        0.127072245456367    0.679044752639570    0.096486730801720  0.0000
  O3     O3        0.377723757472155    0.299691121038944    0.110227953589649  0.0000
  O1     O1        0.655476223608015    0.474545039203545    0.079434684103209  0.0000
  O1     O1        0.840772618406149    0.548330329275436    0.071380658811382  0.0000
  O3     O3        0.359933667457718    0.481066103689660    0.905028776542342  0.0000
  O3     O3        0.136578362576472    0.444367210952008    0.895107368632570  0.0000
  O1     O1        0.766050615536829    0.235511940781814    0.016275576194031  0.0000
  O1     O1        0.728411982166201    0.777931191281478    0.007325807595856  0.0000
  O2     O2        0.250677184468279    0.288119544090702    0.989811477705570  0.0000
  O1     O1        0.243447158869021    0.721692963826644    0.909291957968414  0.0000
