data_c00739.vasp
_audit_creation_method             Generated by GULP
_audit_author_name                 Salvador R. G. Balestra
_symmetry_space_group_name_H-M     'P 1             '
_symmetry_Int_Tables_number        1

loop_
_symmetry_equiv_pos_site_id
_symmetry_equiv_pos_as_xyz
_cell_length_a                       17.6988
_cell_length_b                        7.8043
_cell_length_c                       10.1166
_cell_angle_alpha                   90.3927
_cell_angle_beta                    90.2018
_cell_angle_gamma                   90.7224

loop_
_atom_site_label
_atom_site_type_symbol
_atom_site_fract_x
_atom_site_fract_y
_atom_site_fract_z
_atom_site_charge
  Ge     Ge        0.052090000000021    0.000000000000000    0.372269999999958  0.0000
  Ge     Ge        0.437740961955595    0.055044395097415    0.338511983809378  0.0000
  Ge     Ge        0.941748897096604    0.045936158458620    0.617623330055429  0.0000
  Ge     Ge        0.546807020077563    0.990393081768684    0.089152097145530  0.0000
  Ge     Ge        0.941655191003301    0.048817495497019    0.126583008402989  0.0000
  Ge     Ge        0.442203891191836    0.040211971044705    0.835512634424211  0.0000
  Ge     Ge        0.045734883277982    0.982539836384764    0.873622100967313  0.0000
  Ge     Ge        0.168195933943733    0.294153044163648    0.265927863465988  0.0000
  Ge     Ge        0.321221453450370    0.762702957301852    0.258002578723873  0.0000
  Ge     Ge        0.841999204897189    0.363363072961774    0.680388540676632  0.0000
  Ge     Ge        0.635487157080083    0.695421998647271    0.699472452271240  0.0000
  Ge     Ge        0.816441504843264    0.766748099921827    0.688683723060856  0.0000
  Ge     Ge        0.661513640758811    0.290829962238646    0.691151661849268  0.0000
  Ge     Ge        0.669553361726361    0.274632887130527    0.012182953165048  0.0000
  Ge     Ge        0.820275583210376    0.765105509702160    0.008940322194484  0.0000
  Ge     Ge        0.146251962980044    0.669339721253382    0.932410614319602  0.0000
  Ge     Ge        0.325310803196103    0.746221717939264    0.939505989901489  0.0000
  Ge     Ge        0.171001420588741    0.266260049477185    0.944509416207146  0.0000
  Ge     Ge        0.643045245095381    0.677179491540469    0.019995087161329  0.0000
  Ge     Ge        0.847392627697186    0.359002738618772    0.003001836136199  0.0000
  Si     Si        0.543354900692541    0.008866158049898    0.586141760510440  0.0000
  Si     Si        0.144862177353911    0.689265131660470    0.248970673927856  0.0000
  Si     Si        0.342629772598922    0.367589018061582    0.269605632882843  0.0000
  Si     Si        0.345620975984199    0.345839226348311    0.957339576399785  0.0000
  O1     O1        0.121253273031083    0.154807271397092    0.365950271273491  0.0000
  O1     O1        0.366033110551766    0.907478676582192    0.359392725872008  0.0000
  O1     O1        0.907116894059617    0.247860972282643    0.592587539828311  0.0000
  O3     O3        0.567306417126718    0.816458687832323    0.621990467743680  0.0000
  O1     O1        0.866913209182058    0.906573115728463    0.593419388831903  0.0000
  O3     O3        0.614039167010404    0.137222213010431    0.598694940293941  0.0000
  O3     O3        0.083052068007182    0.799969734404760    0.324874372685041  0.0000
  O3     O3        0.404491322296643    0.262818358641162    0.350292097161326  0.0000
  O1     O1        0.021507904772554    0.993257740363504    0.533786180801872  0.0000
  O3     O3        0.515204097205038    0.015385784044055    0.434769712628691  0.0000
  O1     O1        0.971530903159088    0.052743051650693    0.288433265863780  0.0000
  O1     O1        0.468860760867822    0.033618134359397    0.178431732607725  0.0000
  O1     O1        0.969306253391791    0.034207671689357    0.782538601016907  0.0000
  O3     O3        0.472011513599735    0.067158362984158    0.673556232307041  0.0000
  O1     O1        0.619690460075246    0.136456680984001    0.109143113288931  0.0000
  O1     O1        0.866507984535378    0.910194031361656    0.107944753149346  0.0000
  O3     O3        0.411382218186567    0.238963620900615    0.891244690583398  0.0000
  O1     O1        0.079260464655525    0.778385015699434    0.847081103396896  0.0000
  O1     O1        0.374079066551263    0.882189527922189    0.838273234267215  0.0000
  O1     O1        0.122428665903794    0.119203179675822    0.852813116139489  0.0000
  O1     O1        0.581312915090167    0.788531817550580    0.116502775861105  0.0000
  O1     O1        0.916465426128248    0.254007131089794    0.086305845329378  0.0000
  O1     O1        0.519964513882524    0.988381209459685    0.924439227428213  0.0000
  O1     O1        0.018595657277943    0.987922964744812    0.036999197084914  0.0000
  O3     O3        0.152238703808498    0.504003333299742    0.315770843122668  0.0000
  O3     O3        0.337543487719316    0.559874096123562    0.322141680148243  0.0000
  O1     O1        0.829449783245643    0.564997517323589    0.621686497867684  0.0000
  O1     O1        0.644287532952955    0.493186475604110    0.631874466977742  0.0000
  O3     O3        0.264279489585812    0.262603371289437    0.281433763166482  0.0000
  O3     O3        0.224591283753476    0.792826613505174    0.254617828482070  0.0000
  O1     O1        0.756735875070830    0.253998693556846    0.681511811115756  0.0000
  O1     O1        0.721020365408480    0.802930705218613    0.691035977240737  0.0000
  O1     O1        0.140559900608054    0.254522098238980    0.106152440499564  0.0000
  O1     O1        0.354365014424634    0.784847359255321    0.099592488784490  0.0000
  O1     O1        0.872939607376724    0.383828316254796    0.841070761894908  0.0000
  O1     O1        0.610403029066458    0.658111940959983    0.859557615256972  0.0000
  O1     O1        0.851122136501127    0.780580352547608    0.848213128680924  0.0000
  O1     O1        0.634451788351111    0.270320336918399    0.853137818239410  0.0000
  O3     O3        0.121460219529226    0.654598847917641    0.098316466709434  0.0000
  O2     O2        0.361991364427403    0.380847653576809    0.113044859613085  0.0000
  O1     O1        0.659020621097540    0.477921619013526    0.078933753543522  0.0000
  O1     O1        0.834622124290017    0.560271181659896    0.066779934188403  0.0000
  O3     O3        0.338742404852567    0.532594619584955    0.893784845380792  0.0000
  O1     O1        0.153517292614917    0.464226651860880    0.877277915759740  0.0000
  O1     O1        0.764829512556686    0.238068756916473    0.009121460718476  0.0000
  O1     O1        0.725009696754938    0.799054311091634    0.010466848041786  0.0000
  O3     O3        0.267987079358746    0.236980155514418    0.941676420238761  0.0000
  O1     O1        0.230489814436238    0.781028678528143    0.924844435693121  0.0000
