data_c00787.vasp
_audit_creation_method             Generated by GULP
_audit_author_name                 Salvador R. G. Balestra
_symmetry_space_group_name_H-M     'P 1             '
_symmetry_Int_Tables_number        1

loop_
_symmetry_equiv_pos_site_id
_symmetry_equiv_pos_as_xyz
_cell_length_a                       17.5718
_cell_length_b                        7.8474
_cell_length_c                       10.2473
_cell_angle_alpha                   89.4799
_cell_angle_beta                    90.3625
_cell_angle_gamma                   88.1500

loop_
_atom_site_label
_atom_site_type_symbol
_atom_site_fract_x
_atom_site_fract_y
_atom_site_fract_z
_atom_site_charge
  Ge     Ge        0.052090000000021    0.000000000000000    0.372269999999958  0.0000
  Ge     Ge        0.453199788106007    0.940004494090095    0.376553893332323  0.0000
  Ge     Ge        0.945537365896436    0.951578493649414    0.624536197227449  0.0000
  Ge     Ge        0.561849478769165    0.998652008262774    0.129160624020675  0.0000
  Ge     Ge        0.945008627905337    0.956435074900124    0.122467866500174  0.0000
  Ge     Ge        0.454907730364082    0.944929809072419    0.874822498298200  0.0000
  Ge     Ge        0.051675674468432    0.012366022716372    0.875526816912281  0.0000
  Ge     Ge        0.147476949104924    0.311816819796321    0.257801819575135  0.0000
  Ge     Ge        0.357933862105798    0.630875880984020    0.263487139588376  0.0000
  Ge     Ge        0.827982729243108    0.249341309390344    0.696665328653330  0.0000
  Ge     Ge        0.669650324319016    0.714619976386384    0.700356537358586  0.0000
  Ge     Ge        0.644673653973635    0.313334554079790    0.697471985547422  0.0000
  Ge     Ge        0.175933211057577    0.712668052375903    0.261204594237142  0.0000
  Ge     Ge        0.329182534486985    0.228873603288780    0.261888718485815  0.0000
  Ge     Ge        0.651002751144357    0.317646667340524    0.010748916670323  0.0000
  Ge     Ge        0.854026862969266    0.640323184647535    0.001486671356221  0.0000
  Ge     Ge        0.330498302773089    0.231984758614399    0.945072936249313  0.0000
  Ge     Ge        0.176612066579652    0.722108342567922    0.944750826920336  0.0000
  Ge     Ge        0.356889249738432    0.633969617601161    0.945943760524411  0.0000
  Ge     Ge        0.150514743049440    0.321489593432922    0.939467659099410  0.0000
  Si     Si        0.553653588950706    0.003389169009136    0.624922655372830  0.0000
  Si     Si        0.848054220838672    0.645517326039599    0.692726681386695  0.0000
  Si     Si        0.674839339622618    0.709945713283985    0.010819342799533  0.0000
  Si     Si        0.831878474852548    0.246723770014825    0.003417173848243  0.0000
  O1     O1        0.079952920350170    0.204065169745709    0.342149250304659  0.0000
  O1     O1        0.424726115540080    0.736167836023387    0.352073926272481  0.0000
  O1     O1        0.878202140692569    0.113296915341250    0.598923746539735  0.0000
  O3     O3        0.622983908095903    0.866086865642942    0.604846648181664  0.0000
  O3     O3        0.904258727772644    0.755045654804779    0.605010484745878  0.0000
  O3     O3        0.583484956878115    0.192801715678021    0.604400204359359  0.0000
  O1     O1        0.128193116806212    0.861799204119917    0.352203075225286  0.0000
  O1     O1        0.376556221357397    0.076564349702059    0.353623275085458  0.0000
  O1     O1        0.024156319197103    0.978109088421622    0.532667042243687  0.0000
  O3     O3        0.481199701805537    0.963073051830119    0.538868827544357  0.0000
  O1     O1        0.971869890926822    0.955311017966933    0.283529558573740  0.0000
  O1     O1        0.532232529455817    0.985311829366156    0.287602014726650  0.0000
  O1     O1        0.974237311862672    0.966709689549726    0.785266300284105  0.0000
  O3     O3        0.531095806522660    0.982750569456602    0.777305988961194  0.0000
  O1     O1        0.594543586912967    0.201813646823105    0.109018182288171  0.0000
  O1     O1        0.917552956354229    0.752302523188503    0.087645381216581  0.0000
  O1     O1        0.381076171585288    0.091832849592064    0.850799820920117  0.0000
  O1     O1        0.125805321410846    0.866516774224765    0.852023844678623  0.0000
  O1     O1        0.421073679476325    0.744047640780367    0.855679520544439  0.0000
  O1     O1        0.086245949754630    0.212301624340321    0.848931609335150  0.0000
  O3     O3        0.635515712776775    0.853691568193756    0.098393903378296  0.0000
  O3     O3        0.870249267528182    0.101233875914073    0.094095877127668  0.0000
  O1     O1        0.483955298305780    0.961986915294550    0.035086368508173  0.0000
  O1     O1        0.024531247639042    0.005653034758258    0.037547649363331  0.0000
  O1     O1        0.159900569756239    0.510871452494053    0.320911132487346  0.0000
  O1     O1        0.345451835296955    0.428968249864773    0.322758613603421  0.0000
  O3     O3        0.838899863874304    0.456962385602510    0.639096128476631  0.0000
  O1     O1        0.648977727842328    0.517499261740343    0.639568550628994  0.0000
  O1     O1        0.233083539014730    0.197511413301288    0.263243465140248  0.0000
  O1     O1        0.272174106852670    0.743793545048847    0.265431701017766  0.0000
  O1     O1        0.733007923471772    0.212259860327492    0.692859756080333  0.0000
  O3     O3        0.766175039451769    0.745133611067826    0.694768647088416  0.0000
  O1     O1        0.119887215950059    0.339063982454661    0.098123571234328  0.0000
  O1     O1        0.388217815418345    0.615093741940962    0.104977738377531  0.0000
  O3     O3        0.862553373449144    0.230225610213388    0.855810454661722  0.0000
  O3     O3        0.642630665353085    0.720131441060205    0.862908167760527  0.0000
  O3     O3        0.880927375949776    0.634768004061373    0.839805080215047  0.0000
  O1     O1        0.613465065099964    0.319754970141525    0.855940308362011  0.0000
  O1     O1        0.143817452551205    0.729335030999514    0.102740043783919  0.0000
  O1     O1        0.362046718260937    0.218412019396164    0.104501536935272  0.0000
  O3     O3        0.657030737548772    0.523448664583767    0.068143914345272  0.0000
  O3     O3        0.851703939263063    0.432266102122298    0.058394610092727  0.0000
  O1     O1        0.343708705654348    0.436093843131719    0.885423494238225  0.0000
  O1     O1        0.164104558102761    0.521280619214836    0.880399328145235  0.0000
  O3     O3        0.741517065433219    0.226531170259384    0.999726753165366  0.0000
  O3     O3        0.764733798992842    0.737077830295458    0.011447973302458  0.0000
  O1     O1        0.234651050333415    0.200528089734567    0.942520542627936  0.0000
  O1     O1        0.272542342894572    0.753907082611196    0.947079872548344  0.0000
