data_c00807.vasp
_audit_creation_method             Generated by GULP
_audit_author_name                 Salvador R. G. Balestra
_symmetry_space_group_name_H-M     'P 1             '
_symmetry_Int_Tables_number        1

loop_
_symmetry_equiv_pos_site_id
_symmetry_equiv_pos_as_xyz
_cell_length_a                       17.6453
_cell_length_b                        7.8294
_cell_length_c                       10.1730
_cell_angle_alpha                   90.0339
_cell_angle_beta                    90.0197
_cell_angle_gamma                   88.9131

loop_
_atom_site_label
_atom_site_type_symbol
_atom_site_fract_x
_atom_site_fract_y
_atom_site_fract_z
_atom_site_charge
  Ge     Ge        0.052090000000021    0.000000000000000    0.372269999999958  0.0000
  Ge     Ge        0.451182004027795    0.959110838649198    0.352428755929897  0.0000
  Ge     Ge        0.945897838541275    0.967822739992695    0.631471384237998  0.0000
  Ge     Ge        0.556807733563875    0.032214359064928    0.098368561261471  0.0000
  Ge     Ge        0.949975375575807    0.969819778644714    0.118158666782059  0.0000
  Ge     Ge        0.452027413170443    0.970551404665549    0.844093962437376  0.0000
  Ge     Ge        0.059097106823416    0.021699192590294    0.875931234319068  0.0000
  Ge     Ge        0.147140659330449    0.316121737893384    0.256747989623243  0.0000
  Ge     Ge        0.357005570462669    0.642372301972486    0.276699225192086  0.0000
  Ge     Ge        0.827987577397493    0.264349397700603    0.699095065696292  0.0000
  Ge     Ge        0.671661698297798    0.738072616070048    0.701761810700741  0.0000
  Ge     Ge        0.645082833130357    0.336124961573152    0.710250725580157  0.0000
  Ge     Ge        0.175679264323215    0.717928840917281    0.265830410248541  0.0000
  Ge     Ge        0.326973315901347    0.238943827796064    0.269252788052932  0.0000
  Ge     Ge        0.652944344876146    0.347692467849642    0.029085858940979  0.0000
  Ge     Ge        0.180781511551013    0.731307081214014    0.948142878849510  0.0000
  Ge     Ge        0.361519135139795    0.651488835079399    0.960870530231855  0.0000
  Ge     Ge        0.159132491646491    0.332678491217967    0.936775729103785  0.0000
  Ge     Ge        0.681538119887154    0.747604073365257    0.027472527235788  0.0000
  Ge     Ge        0.834808472210058    0.270853980389377    0.013993352507309  0.0000
  Si     Si        0.553640164667603    0.026504258528872    0.596897951550730  0.0000
  Si     Si        0.844755439672135    0.656826776296125    0.689500845795731  0.0000
  Si     Si        0.854164669502972    0.665425374456750    0.003385556065922  0.0000
  Si     Si        0.334505519644492    0.252760695957227    0.957511137634896  0.0000
  O1     O1        0.077159411271727    0.205088359044537    0.332715420202470  0.0000
  O1     O1        0.418885660182148    0.756218203236282    0.372622975644850  0.0000
  O1     O1        0.876239965809808    0.119053518387773    0.602722276119282  0.0000
  O3     O3        0.624036335850499    0.897865907710097    0.619503450661998  0.0000
  O3     O3        0.910604084637234    0.761738278100307    0.622293939106670  0.0000
  O3     O3        0.578526936211406    0.218319919762951    0.627003258173926  0.0000
  O1     O1        0.129116021145274    0.865407532708033    0.361113609160958  0.0000
  O1     O1        0.375097653898442    0.097916196566859    0.367098414227410  0.0000
  O1     O1        0.022445245824672    0.994007233693178    0.533369179798119  0.0000
  O3     O3        0.528511819728606    0.011475723615403    0.445427952246513  0.0000
  O1     O1        0.976152106895751    0.937460663828265    0.278927010642330  0.0000
  O1     O1        0.481424931685708    0.981665178969370    0.191444067776418  0.0000
  O1     O1        0.978776469460940    0.986232742809478    0.790079361877186  0.0000
  O3     O3        0.480027513968522    0.976712299726807    0.680664839703969  0.0000
  O1     O1        0.590962567335938    0.233906339538367    0.122508543813644  0.0000
  O3     O3        0.924217797181588    0.773860648222668    0.050484928548875  0.0000
  O3     O3        0.377998041463601    0.114495150954815    0.868504536463797  0.0000
  O1     O1        0.130750452406095    0.872829778348430    0.853329904689031  0.0000
  O1     O1        0.424993214054477    0.763449587948128    0.869919300184208  0.0000
  O1     O1        0.098845807993358    0.216647440650968    0.843139038697355  0.0000
  O1     O1        0.633506264881454    0.893822830303051    0.119141764531733  0.0000
  O1     O1        0.881167344679999    0.126900307924105    0.113106207948501  0.0000
  O1     O1        0.529239124262307    0.019136214358991    0.935534431912016  0.0000
  O1     O1        0.030954021823563    0.027398619101238    0.038675076202289  0.0000
  O1     O1        0.158898249110589    0.515406196448631    0.323811130462161  0.0000
  O1     O1        0.343286452137454    0.440569251699411    0.331668904504488  0.0000
  O3     O3        0.841137075759887    0.467148315597040    0.632275704787743  0.0000
  O1     O1        0.649040035967202    0.538551464437892    0.645444732351728  0.0000
  O1     O1        0.231991878492441    0.202116047037798    0.269805506137477  0.0000
  O1     O1        0.271443952792999    0.751492804726597    0.269331077995403  0.0000
  O1     O1        0.732267207179307    0.233640255666294    0.701906479023650  0.0000
  O3     O3        0.767293411953658    0.765228151898565    0.671218081653361  0.0000
  O1     O1        0.125629454837909    0.350986229787165    0.095011974963092  0.0000
  O1     O1        0.393241632626034    0.639300403248912    0.119418113939638  0.0000
  O1     O1        0.864367100837633    0.238112152928471    0.854991257594493  0.0000
  O1     O1        0.652502594300578    0.756442688939432    0.865913664908442  0.0000
  O2     O2        0.854497741523029    0.625892587757973    0.846890742796664  0.0000
  O1     O1        0.618638543671235    0.360454366659277    0.870576448115113  0.0000
  O1     O1        0.145237066560574    0.739714718251385    0.105645346670618  0.0000
  O3     O3        0.361543665371920    0.235246352253777    0.108497134987137  0.0000
  O1     O1        0.663231555331317    0.548031023998157    0.089986979366731  0.0000
  O3     O3        0.852890036258033    0.478585827827293    0.067827705184504  0.0000
  O3     O3        0.350247147453024    0.443875943247464    0.905278422788678  0.0000
  O1     O1        0.169304398996006    0.532709985694778    0.876968123784632  0.0000
  O1     O1        0.739183277005016    0.240739323727115    0.021041967398533  0.0000
  O3     O3        0.778658737507608    0.776219395195672    0.037003963601403  0.0000
  O3     O3        0.245165679852573    0.221140142397227    0.950281934323421  0.0000
  O1     O1        0.276489967908256    0.762383642071401    0.954490330177014  0.0000
