data_c00838.vasp
_audit_creation_method             Generated by GULP
_audit_author_name                 Salvador R. G. Balestra
_symmetry_space_group_name_H-M     'P 1             '
_symmetry_Int_Tables_number        1

loop_
_symmetry_equiv_pos_site_id
_symmetry_equiv_pos_as_xyz
_cell_length_a                       17.7212
_cell_length_b                        7.8136
_cell_length_c                       10.1131
_cell_angle_alpha                   90.6240
_cell_angle_beta                    90.4374
_cell_angle_gamma                   89.4806

loop_
_atom_site_label
_atom_site_type_symbol
_atom_site_fract_x
_atom_site_fract_y
_atom_site_fract_z
_atom_site_charge
  Ge     Ge        0.052090000000021    0.000000000000000    0.372269999999958  0.0000
  Ge     Ge        0.450961268691563    0.964425132287689    0.347143904658174  0.0000
  Ge     Ge        0.943389180066492    0.958348443219809    0.626349627113703  0.0000
  Ge     Ge        0.554488083107090    0.027650832562308    0.090026377934699  0.0000
  Ge     Ge        0.948528038330645    0.969573361882236    0.117284340722474  0.0000
  Ge     Ge        0.451297830144553    0.965122217647294    0.830159229019055  0.0000
  Ge     Ge        0.055036902874185    0.019430478717878    0.872626345470929  0.0000
  Ge     Ge        0.147283811103432    0.316980120519557    0.256008750948585  0.0000
  Ge     Ge        0.355088338773713    0.645525369548174    0.272358865016799  0.0000
  Ge     Ge        0.827783415443111    0.254862341239426    0.697184315549905  0.0000
  Ge     Ge        0.668888495358675    0.711852714044752    0.690088376932565  0.0000
  Ge     Ge        0.175458379320359    0.720408377321002    0.265428299639199  0.0000
  Ge     Ge        0.326835951394619    0.240425675516308    0.265295475810519  0.0000
  Ge     Ge        0.654114733847752    0.338763226737795    0.024015986646685  0.0000
  Ge     Ge        0.329848662899173    0.246290747307941    0.944589632225551  0.0000
  Ge     Ge        0.178732410198298    0.736156069597270    0.945296681427718  0.0000
  Ge     Ge        0.357192454707483    0.654052751627003    0.951401925775528  0.0000
  Ge     Ge        0.152834845020730    0.334100198681082    0.934135055435971  0.0000
  Ge     Ge        0.678121947168506    0.743050062852715    0.014823979571376  0.0000
  Ge     Ge        0.833728623542467    0.267925363661676    0.014020283626700  0.0000
  Si     Si        0.557839459169579    0.006729128581389    0.588093924333194  0.0000
  Si     Si        0.842572874577359    0.645577530613610    0.680055473044911  0.0000
  Si     Si        0.649413190123056    0.315845518353550    0.710146980720806  0.0000
  Si     Si        0.850453616850021    0.665528591235479    0.996081895313204  0.0000
  O1     O1        0.078532528815590    0.204961900421627    0.334571294018672  0.0000
  O1     O1        0.418553911955833    0.760592491840435    0.366689687290137  0.0000
  O1     O1        0.872734628839176    0.106468285610962    0.599912745461487  0.0000
  O3     O3        0.618485852409178    0.853986237748846    0.595129146184651  0.0000
  O3     O3        0.906841033013065    0.753044344988885    0.610916531131826  0.0000
  O2     O2        0.591687162221059    0.188544275223336    0.635223337117477  0.0000
  O1     O1        0.128351061498568    0.865606201739314    0.362482485234020  0.0000
  O1     O1        0.376049231692993    0.103042127665308    0.365005003079083  0.0000
  O1     O1        0.020826439912904    0.992776473024422    0.533301470622148  0.0000
  O3     O3        0.530357904250582    0.019421663958572    0.436740023682779  0.0000
  O1     O1        0.975683887666090    0.936770542407242    0.278407664473801  0.0000
  O1     O1        0.479556506641618    0.980453228091962    0.184013858641576  0.0000
  O1     O1        0.974981644063022    0.973763874055166    0.787359506581370  0.0000
  O3     O3        0.482475008479602    0.963564728989402    0.667735282736005  0.0000
  O1     O1        0.589946801994557    0.230294026225551    0.114679378814480  0.0000
  O3     O3        0.919694015629314    0.775077101541540    0.047983694831255  0.0000
  O1     O1        0.376265806045702    0.103468226416131    0.844704599193491  0.0000
  O1     O1        0.127761250869144    0.874796453324268    0.850164200853897  0.0000
  O1     O1        0.423967685953206    0.759896056949656    0.864294758877177  0.0000
  O1     O1        0.089282968351205    0.220472397906182    0.841108338604636  0.0000
  O1     O1        0.629835545761065    0.887535729983284    0.107823061470238  0.0000
  O1     O1        0.882237253705205    0.130591032691129    0.114521666867353  0.0000
  O1     O1        0.525974144954369    0.021879667127874    0.926811330300177  0.0000
  O1     O1        0.029278971510488    0.023587464630755    0.037347658381983  0.0000
  O1     O1        0.160118691396714    0.517470763762396    0.323895183010173  0.0000
  O1     O1        0.341223100361773    0.444162529399876    0.328766641294756  0.0000
  O3     O3        0.842837593295125    0.453010055966838    0.625601739845422  0.0000
  O3     O3        0.650597358825461    0.501249859215425    0.642678539283480  0.0000
  O1     O1        0.231582691146716    0.203411492629989    0.263525649378928  0.0000
  O1     O1        0.270757656774264    0.757292311611077    0.268853962631749  0.0000
  O3     O3        0.731499817284310    0.225868937885003    0.706411779570580  0.0000
  O3     O3        0.763499677568181    0.743842193735952    0.658800898983124  0.0000
  O1     O1        0.122758584587304    0.355121822121667    0.095110593039657  0.0000
  O1     O1        0.386931669722625    0.632002663935751    0.112278642866523  0.0000
  O1     O1        0.863476612824142    0.231985699605944    0.854556717982808  0.0000
  O1     O1        0.648203456313874    0.751856576603521    0.852047851783966  0.0000
  O2     O2        0.853237628283142    0.623026427198989    0.838912710595201  0.0000
  O3     O3        0.624275009787679    0.348238570233863    0.859475389430180  0.0000
  O1     O1        0.144868864316722    0.743342354832135    0.104373466383724  0.0000
  O1     O1        0.360683204069928    0.226902229249913    0.105757755558830  0.0000
  O1     O1        0.661745109607418    0.543782140782340    0.078987358530402  0.0000
  O3     O3        0.848402703063506    0.480501942660925    0.062900215361729  0.0000
  O1     O1        0.343627815190809    0.451910254966839    0.889435331794416  0.0000
  O1     O1        0.167341276187592    0.533956166621586    0.876023548580568  0.0000
  O1     O1        0.739104213967965    0.231185392997906    0.026698542074648  0.0000
  O3     O3        0.774749756480440    0.775922777453671    0.023448093294387  0.0000
  O1     O1        0.234670176011694    0.212381245415548    0.940354152313776  0.0000
  O1     O1        0.274106975396452    0.772081051226139    0.948180975548821  0.0000
