data_c00868.vasp
_audit_creation_method             Generated by GULP
_audit_author_name                 Salvador R. G. Balestra
_symmetry_space_group_name_H-M     'P 1             '
_symmetry_Int_Tables_number        1

loop_
_symmetry_equiv_pos_site_id
_symmetry_equiv_pos_as_xyz
_cell_length_a                       17.5753
_cell_length_b                        7.8608
_cell_length_c                       10.1774
_cell_angle_alpha                   88.7719
_cell_angle_beta                    90.1941
_cell_angle_gamma                   91.7052

loop_
_atom_site_label
_atom_site_type_symbol
_atom_site_fract_x
_atom_site_fract_y
_atom_site_fract_z
_atom_site_charge
  Ge     Ge        0.052090000000021    0.000000000000000    0.372269999999958  0.0000
  Ge     Ge        0.450405780733039    0.053033530496551    0.377915314649779  0.0000
  Ge     Ge        0.942011977169210    0.059696067932398    0.619003599234353  0.0000
  Ge     Ge        0.556336588825751    0.007352564999666    0.127029342841279  0.0000
  Ge     Ge        0.948748128987867    0.067381907831150    0.118443545966671  0.0000
  Ge     Ge        0.448334488290929    0.068337946363568    0.877455044797516  0.0000
  Ge     Ge        0.052725497586063    0.011714319403225    0.867729092670520  0.0000
  Ge     Ge        0.174833629966040    0.290449174837734    0.259271642352426  0.0000
  Ge     Ge        0.327253546007986    0.770283903849426    0.260190794785930  0.0000
  Ge     Ge        0.847904312072436    0.379366755102868    0.680880205461554  0.0000
  Ge     Ge        0.662635969694658    0.313049368604732    0.692785304568358  0.0000
  Ge     Ge        0.145912321602418    0.691335869212176    0.256370194983411  0.0000
  Ge     Ge        0.357868045866447    0.368824275406821    0.260751658508755  0.0000
  Ge     Ge        0.674234197849630    0.298178333616148    0.010023837924448  0.0000
  Ge     Ge        0.826293011073080    0.781194491015964    0.998141178314086  0.0000
  Ge     Ge        0.355277572052398    0.382903588421308    0.944213571458294  0.0000
  Ge     Ge        0.152306134681149    0.699852301055608    0.936187070434038  0.0000
  Ge     Ge        0.173706750066521    0.300762678431167    0.941605362846361  0.0000
  Ge     Ge        0.646772699696343    0.698501285965231    0.004296453344118  0.0000
  Ge     Ge        0.856443965938808    0.379445095208955    0.998175338827140  0.0000
  Si     Si        0.551530610458140    0.013010417172780    0.630863616285694  0.0000
  Si     Si        0.647529168300654    0.701727738255730    0.691767174699112  0.0000
  Si     Si        0.824945711755023    0.768446115778658    0.685653031536350  0.0000
  Si     Si        0.329690068828731    0.776325331917494    0.948154168491103  0.0000
  O1     O1        0.128892936708616    0.137015918946253    0.353282594085340  0.0000
  O1     O1        0.373057147065838    0.921015665581645    0.350950807828910  0.0000
  O1     O1        0.906045315915113    0.257367198827878    0.588340718915367  0.0000
  O2     O2        0.593843869415100    0.833570714958918    0.614258574787378  0.0000
  O3     O3        0.866014655223786    0.914372094810307    0.598644620561566  0.0000
  O3     O3        0.610871864088902    0.168477684822315    0.599696120562480  0.0000
  O1     O1        0.078316148229950    0.796456175432271    0.341279135383264  0.0000
  O1     O1        0.423195124384815    0.258703167937820    0.351792723406448  0.0000
  O1     O1        0.020588751878347    0.011831807202177    0.532425618980913  0.0000
  O3     O3        0.477609045967001    0.025551897135131    0.541543499198256  0.0000
  O1     O1        0.973972566359727    0.055673312280496    0.281196748519510  0.0000
  O1     O1        0.527838318056426    0.001252721227960    0.287903522153557  0.0000
  O1     O1        0.972519586489304    0.050935989694993    0.780823105861338  0.0000
  O3     O3        0.524966412832288    0.023233680577073    0.781917313541887  0.0000
  O1     O1        0.633521771114733    0.144117613975884    0.109597096142572  0.0000
  O1     O1        0.872040011342893    0.933958274612037    0.085860443581881  0.0000
  O1     O1        0.413170043068734    0.267398860582681    0.846670284321763  0.0000
  O1     O1        0.091739272010411    0.816944439421249    0.842013026109113  0.0000
  O3     O3        0.375890940513350    0.915085669989726    0.861193641136479  0.0000
  O1     O1        0.124271741729935    0.163207164235126    0.843732710650782  0.0000
  O1     O1        0.577861142321646    0.803940432484204    0.082727382143422  0.0000
  O1     O1        0.923849896495660    0.274154563505800    0.086129666055483  0.0000
  O1     O1        0.480095885927443    0.074573099283782    0.036917409196419  0.0000
  O1     O1        0.026618647157706    0.010886098364896    0.031524122074594  0.0000
  O1     O1        0.157342907163782    0.489486835685508    0.318807804909094  0.0000
  O1     O1        0.345613783702982    0.569066217480544    0.319830446741125  0.0000
  O3     O3        0.843666243227626    0.587687547285640    0.623703885983579  0.0000
  O3     O3        0.645653451659032    0.517154496921654    0.628747833209515  0.0000
  O1     O1        0.271004968929003    0.260744643033997    0.261626912664282  0.0000
  O1     O1        0.231661005906549    0.803060678650527    0.265050656387427  0.0000
  O1     O1        0.758429847636846    0.284414440992550    0.682154369844191  0.0000
  O2     O2        0.733388168070704    0.783554553888732    0.691867407596581  0.0000
  O1     O1        0.140617874437462    0.281485102038755    0.100811180535793  0.0000
  O3     O3        0.359191878318885    0.782735543263406    0.098379905280793  0.0000
  O1     O1        0.884490976527784    0.386279453480298    0.836696893191850  0.0000
  O3     O3        0.621137524008569    0.672704831631875    0.840972482740894  0.0000
  O3     O3        0.855236008823599    0.782582547589960    0.834753786777783  0.0000
  O1     O1        0.636100690468507    0.286432167987957    0.853927060341091  0.0000
  O1     O1        0.119298377323117    0.677058240774978    0.094620844427009  0.0000
  O1     O1        0.389927274546365    0.387502220777286    0.101789460860023  0.0000
  O1     O1        0.657871998904720    0.498163743539246    0.069082602307946  0.0000
  O1     O1        0.846010932088479    0.580027854917647    0.057085197931812  0.0000
  O3     O3        0.343006479648061    0.589499776799039    0.889552936911670  0.0000
  O1     O1        0.160486087309008    0.502101328974161    0.875420031447079  0.0000
  O1     O1        0.770131485334399    0.270046354046361    0.003356437076175  0.0000
  O1     O1        0.730922142776927    0.814442756984173    0.011334127391336  0.0000
  O1     O1        0.269459894240057    0.271484168177336    0.947737791564063  0.0000
  O3     O3        0.240022432458553    0.808811160571804    0.945478717326917  0.0000
