data_c00813.vasp
_audit_creation_method             Generated by GULP
_audit_author_name                 Salvador R. G. Balestra
_symmetry_space_group_name_H-M     'P 1             '
_symmetry_Int_Tables_number        1

loop_
_symmetry_equiv_pos_site_id
_symmetry_equiv_pos_as_xyz
_cell_length_a                       17.6103
_cell_length_b                        7.8164
_cell_length_c                       10.1907
_cell_angle_alpha                   89.6379
_cell_angle_beta                    89.8384
_cell_angle_gamma                   88.5954

loop_
_atom_site_label
_atom_site_type_symbol
_atom_site_fract_x
_atom_site_fract_y
_atom_site_fract_z
_atom_site_charge
  Ge     Ge        0.052090000000021    0.000000000000000    0.372269999999958  0.0000
  Ge     Ge        0.450284671034116    0.954345756344389    0.339990640710982  0.0000
  Ge     Ge        0.943478672148605    0.954576907721112    0.624329288945797  0.0000
  Ge     Ge        0.553473040026393    0.018435846768535    0.080361374189838  0.0000
  Ge     Ge        0.946860272839613    0.953772394357980    0.121417674358353  0.0000
  Ge     Ge        0.446145555471049    0.960915128664769    0.829374307471890  0.0000
  Ge     Ge        0.051992067995177    0.015138455746205    0.871885370210783  0.0000
  Ge     Ge        0.145335919782042    0.314769005611045    0.253433940811731  0.0000
  Ge     Ge        0.356892010352965    0.636740294005604    0.262440250450334  0.0000
  Ge     Ge        0.824268069905440    0.250267460868791    0.688774272983687  0.0000
  Ge     Ge        0.666550956546176    0.724370767782414    0.696165409400737  0.0000
  Ge     Ge        0.642871430933762    0.321520911085715    0.698378308729666  0.0000
  Ge     Ge        0.175138429469049    0.717077998189890    0.258547004361140  0.0000
  Ge     Ge        0.325377645370149    0.232671300894921    0.258589607559367  0.0000
  Ge     Ge        0.852678374188312    0.643526865118166    0.002723046169562  0.0000
  Ge     Ge        0.175567450829278    0.724819900065480    0.941718116231417  0.0000
  Ge     Ge        0.356927055194922    0.641269183079372    0.947439721681169  0.0000
  Ge     Ge        0.152332295206428    0.325320573492596    0.932858197631160  0.0000
  Ge     Ge        0.673241176761630    0.722150289636869    0.014958607394258  0.0000
  Ge     Ge        0.827263197456246    0.241829427962185    0.005898890959259  0.0000
  Si     Si        0.550684181175730    0.014620325957444    0.586164732752736  0.0000
  Si     Si        0.843483819127252    0.644632308108417    0.687479417625950  0.0000
  Si     Si        0.650699712707027    0.326422113907068    0.009926816460790  0.0000
  Si     Si        0.328508667818135    0.242871353938653    0.946125462558796  0.0000
  O1     O1        0.076481910293574    0.206484100956028    0.336105690268931  0.0000
  O1     O1        0.420049225200966    0.748797092818568    0.355695618983988  0.0000
  O1     O1        0.875947796853644    0.111809735389724    0.592459044588944  0.0000
  O3     O3        0.621421342254664    0.884902481448306    0.608319598471282  0.0000
  O3     O3        0.903795188881727    0.754606409543719    0.607246734250887  0.0000
  O3     O3        0.573987195341622    0.206436362451471    0.621124424646933  0.0000
  O1     O1        0.129512313830758    0.866383040448339    0.353617194475220  0.0000
  O1     O1        0.372836986726838    0.090568232052007    0.357520097848956  0.0000
  O1     O1        0.023242236259952    0.982265836659724    0.533375528730553  0.0000
  O3     O3        0.527379963019850    0.003242325067231    0.434134700214574  0.0000
  O1     O1        0.974099653122560    0.943265522402903    0.282658600480254  0.0000
  O1     O1        0.477763085964894    0.992080560453424    0.179445278501490  0.0000
  O1     O1        0.973014609267528    0.970269607536233    0.785329774553492  0.0000
  O3     O3        0.475508696162039    0.965475705608265    0.666584545044272  0.0000
  O3     O3        0.593250382514260    0.218871916438835    0.097420755846267  0.0000
  O1     O1        0.924914439444839    0.749939530641515    0.072382373226276  0.0000
  O3     O3        0.371562415408547    0.104420546744757    0.856077290670403  0.0000
  O1     O1        0.125120563967130    0.868625590986638    0.848727725715432  0.0000
  O1     O1        0.418935607607406    0.753519597822093    0.853362417260726  0.0000
  O1     O1        0.090300484162618    0.212327415736822    0.841107106264650  0.0000
  O1     O1        0.621328115192558    0.859603500367352    0.110199908761209  0.0000
  O1     O1        0.868667844905448    0.087726650362977    0.102514803327176  0.0000
  O1     O1        0.523538280198664    0.008932482018541    0.920001421211025  0.0000
  O1     O1        0.023668747176985    0.022167563578513    0.034555512981623  0.0000
  O1     O1        0.158242469899283    0.514325336304700    0.317707545111909  0.0000
  O1     O1        0.343135485505777    0.434660417755655    0.318147766408305  0.0000
  O3     O3        0.834275529437849    0.457648403478543    0.627548533044146  0.0000
  O1     O1        0.646048811546914    0.525980544264526    0.635785926708269  0.0000
  O1     O1        0.230029247878376    0.198748223934309    0.263016978354508  0.0000
  O1     O1        0.271109911886709    0.748193702604844    0.258307287874466  0.0000
  O1     O1        0.728646794387169    0.214816367497733    0.683229024671197  0.0000
  O3     O3        0.763817005032283    0.750894593306506    0.687767271916283  0.0000
  O1     O1        0.120778433388555    0.343275840871073    0.092299570754134  0.0000
  O1     O1        0.391432488429249    0.632705019204810    0.104149691617401  0.0000
  O1     O1        0.857867958781488    0.222249364507728    0.846020449820642  0.0000
  O1     O1        0.640287426379592    0.744678854599248    0.856924988815629  0.0000
  O3     O3        0.869783132680357    0.614493805583232    0.837008469075645  0.0000
  O3     O3        0.619831485617918    0.350773024252172    0.861866570844907  0.0000
  O1     O1        0.141664869812916    0.736226445762389    0.100376091549921  0.0000
  O3     O3        0.356619362651355    0.226750431788355    0.096009653532827  0.0000
  O3     O3        0.663218377335061    0.511924721565383    0.070002323905167  0.0000
  O1     O1        0.847725490729356    0.440476174330449    0.066085251624324  0.0000
  O3     O3        0.344224156782677    0.434424797636060    0.893013755734855  0.0000
  O1     O1        0.161858777693838    0.526351748262231    0.872869935229525  0.0000
  O3     O3        0.729856385219131    0.218646748050288    0.001072090172709  0.0000
  O1     O1        0.768705572863799    0.758151712575899    0.022619692967306  0.0000
  O3     O3        0.238845013849052    0.212602520481736    0.940740674031714  0.0000
  O1     O1        0.271476697228353    0.752900859214217    0.945441763897983  0.0000
