data_c00826.vasp
_audit_creation_method             Generated by GULP
_audit_author_name                 Salvador R. G. Balestra
_symmetry_space_group_name_H-M     'P 1             '
_symmetry_Int_Tables_number        1

loop_
_symmetry_equiv_pos_site_id
_symmetry_equiv_pos_as_xyz
_cell_length_a                       17.6394
_cell_length_b                        7.8222
_cell_length_c                       10.0986
_cell_angle_alpha                   89.4372
_cell_angle_beta                    89.6901
_cell_angle_gamma                   88.8110

loop_
_atom_site_label
_atom_site_type_symbol
_atom_site_fract_x
_atom_site_fract_y
_atom_site_fract_z
_atom_site_charge
  Ge     Ge        0.052090000000021    0.000000000000000    0.372269999999958  0.0000
  Ge     Ge        0.444441360389203    0.957881360661496    0.390837066877022  0.0000
  Ge     Ge        0.942307032268259    0.960511588937156    0.621368887422961  0.0000
  Ge     Ge        0.547024692759905    0.019612360049569    0.131972604552788  0.0000
  Ge     Ge        0.950362223382952    0.955094631898932    0.115192148325316  0.0000
  Ge     Ge        0.444847871077823    0.970651226707804    0.873805546040491  0.0000
  Ge     Ge        0.055633624831324    0.023562590700748    0.861028416482589  0.0000
  Ge     Ge        0.144779407145849    0.322021845868206    0.297814990266978  0.0000
  Ge     Ge        0.347746228970296    0.645914614375428    0.313334782815643  0.0000
  Ge     Ge        0.824829934843674    0.257743642966090    0.732183672037584  0.0000
  Ge     Ge        0.667771388680401    0.725930240088928    0.737838012580342  0.0000
  Ge     Ge        0.642478617139994    0.324907016334903    0.739589913443587  0.0000
  Ge     Ge        0.325954409241399    0.242413738542315    0.301884818406035  0.0000
  Ge     Ge        0.647097011343305    0.328988883972227    0.062310260703138  0.0000
  Ge     Ge        0.847909870213201    0.645287792439082    0.056514521551132  0.0000
  Ge     Ge        0.328234380025999    0.263379408617236    0.983974728865610  0.0000
  Ge     Ge        0.176074122667974    0.738303503179611    0.989913822548533  0.0000
  Ge     Ge        0.145337815477023    0.336875250589577    0.979557120019750  0.0000
  Ge     Ge        0.670968598605113    0.732594828266940    0.060039659423903  0.0000
  Ge     Ge        0.825362539571457    0.241105754968490    0.051846712247241  0.0000
  Si     Si        0.552281293235630    0.012728103642189    0.628774347815049  0.0000
  Si     Si        0.845213956034990    0.652991879565923    0.739215749117522  0.0000
  Si     Si        0.172090533786076    0.717796072699989    0.305872413417775  0.0000
  Si     Si        0.352541469656810    0.661825871029276    0.997340240920150  0.0000
  O1     O1        0.086399853627957    0.201584960840103    0.396290155136320  0.0000
  O1     O1        0.409827652946421    0.755863220865206    0.408472030100041  0.0000
  O1     O1        0.874826443604983    0.119615870824281    0.632940833549831  0.0000
  O3     O3        0.624528114863647    0.887816347208021    0.647228047849322  0.0000
  O3     O3        0.907682419791321    0.762318870265825    0.662808819888231  0.0000
  O3     O3        0.574698761864621    0.205562153980076    0.661158155463926  0.0000
  O3     O3        0.124002094168762    0.847377282513262    0.396004265160277  0.0000
  O1     O1        0.370753321094230    0.102302805079324    0.407960809415794  0.0000
  O1     O1        0.971900111192002    0.954590352953394    0.457975166253152  0.0000
  O3     O3        0.525176708196660    0.001710403465222    0.476994271563462  0.0000
  O1     O1        0.027771285700610    0.994713184244435    0.206510639588979  0.0000
  O1     O1        0.470366424096116    0.977888252087360    0.225946413299290  0.0000
  O1     O1        0.026125936658891    0.001854744871190    0.700406367090233  0.0000
  O3     O3        0.478924531303919    0.954433889009873    0.712456451088563  0.0000
  O1     O1        0.583995779121890    0.218929878985841    0.157054593420001  0.0000
  O1     O1        0.917007555202843    0.750964734371209    0.137136769843999  0.0000
  O1     O1        0.374233351852535    0.124296265549132    0.879551815244744  0.0000
  O1     O1        0.133984983543886    0.897870505206564    0.900315961107539  0.0000
  O3     O3        0.414706980167190    0.768345256147985    0.918357622334683  0.0000
  O1     O1        0.081912502917039    0.231572396284864    0.884217027785897  0.0000
  O1     O1        0.618708962970546    0.869077154315761    0.155005989835173  0.0000
  O1     O1        0.877109722150597    0.099048593677856    0.144730020848270  0.0000
  O1     O1        0.520498934080044    0.022811435450729    0.967596768648030  0.0000
  O1     O1        0.977550744840208    0.968459960240116    0.951152921458380  0.0000
  O3     O3        0.158554417503899    0.524595088141749    0.358134430432784  0.0000
  O1     O1        0.340838002557167    0.442112124347161    0.367928906183253  0.0000
  O3     O3        0.836516792362243    0.466881064834906    0.675576699522331  0.0000
  O1     O1        0.647712606139095    0.529299834741478    0.674407762191125  0.0000
  O1     O1        0.230645848648581    0.212919007171492    0.291701111572964  0.0000
  O3     O3        0.260927967353646    0.755368366614745    0.315317251485590  0.0000
  O1     O1        0.729191693969648    0.221952803701572    0.727851790734542  0.0000
  O3     O3        0.764989945913938    0.755536017423266    0.733849998493642  0.0000
  O1     O1        0.110861520740275    0.337256950917582    0.139510270857143  0.0000
  O3     O3        0.377638073496880    0.638814721787790    0.149426229733131  0.0000
  O1     O1        0.857410696578755    0.227853883870591    0.890238302582196  0.0000
  O1     O1        0.638680452930330    0.743620848017164    0.899140613991148  0.0000
  O3     O3        0.870116920956847    0.620695204288061    0.889809034038352  0.0000
  O1     O1        0.616819249322184    0.353897683537502    0.901099284157444  0.0000
  O3     O3        0.145397521759392    0.734708830266520    0.153438506145993  0.0000
  O1     O1        0.361249529895298    0.229486891481024    0.142114439895904  0.0000
  O1     O1        0.661884541730688    0.527250177018658    0.122884511918404  0.0000
  O1     O1        0.837380523895423    0.443336399356143    0.116038625322362  0.0000
  O3     O3        0.343396766123111    0.474879956040342    0.936086921819039  0.0000
  O1     O1        0.154331992172940    0.543723789724790    0.924418404527960  0.0000
  O1     O1        0.730009250938038    0.206813450722094    0.053947738276727  0.0000
  O1     O1        0.766322504880617    0.770043278967528    0.064100997432314  0.0000
  O1     O1        0.232603611788763    0.233882546166619    0.978228323351374  0.0000
  O3     O3        0.272976572240590    0.766871631730430    0.989401965304046  0.0000
