data_c00816.vasp
_audit_creation_method             Generated by GULP
_audit_author_name                 Salvador R. G. Balestra
_symmetry_space_group_name_H-M     'P 1             '
_symmetry_Int_Tables_number        1

loop_
_symmetry_equiv_pos_site_id
_symmetry_equiv_pos_as_xyz
_cell_length_a                       17.5680
_cell_length_b                        7.8421
_cell_length_c                       10.1844
_cell_angle_alpha                   89.2393
_cell_angle_beta                    90.6813
_cell_angle_gamma                   88.2296

loop_
_atom_site_label
_atom_site_type_symbol
_atom_site_fract_x
_atom_site_fract_y
_atom_site_fract_z
_atom_site_charge
  Ge     Ge        0.052090000000021    0.000000000000000    0.372269999999958  0.0000
  Ge     Ge        0.448315287365497    0.952078606321168    0.407560759858446  0.0000
  Ge     Ge        0.939196772542585    0.967640626329115    0.614276925249630  0.0000
  Ge     Ge        0.556143331587806    0.008038355413893    0.160508435870925  0.0000
  Ge     Ge        0.949836703758137    0.949596771423233    0.112886375049730  0.0000
  Ge     Ge        0.449849354814363    0.950817336671398    0.905225860058707  0.0000
  Ge     Ge        0.052571406390919    0.010852051981171    0.859307839603763  0.0000
  Ge     Ge        0.150961668738868    0.313734989901463    0.302067208188579  0.0000
  Ge     Ge        0.357275416005739    0.635032176031813    0.294588948771245  0.0000
  Ge     Ge        0.824353068948274    0.265681518309875    0.724588277531928  0.0000
  Ge     Ge        0.666452322688958    0.732603714397107    0.731127845205537  0.0000
  Ge     Ge        0.640131698674257    0.332636847459846    0.725808490623669  0.0000
  Ge     Ge        0.174401011513695    0.713556438353537    0.299365873876839  0.0000
  Ge     Ge        0.644916814126354    0.326386545554786    0.040849538615756  0.0000
  Ge     Ge        0.847470936094968    0.643537463339608    0.047459702884502  0.0000
  Ge     Ge        0.325384672314956    0.236121965653459    0.979263109372460  0.0000
  Ge     Ge        0.173769663521757    0.722472441862819    0.981347795354164  0.0000
  Ge     Ge        0.355231242964998    0.637202676338215    0.978656791373356  0.0000
  Ge     Ge        0.145001684844583    0.319036529395039    0.982246094869258  0.0000
  Ge     Ge        0.827113164884691    0.242501337328902    0.039449736791534  0.0000
  Si     Si        0.548771870819135    0.020734290842322    0.656481594404686  0.0000
  Si     Si        0.844518638639223    0.661031549917158    0.733392335837152  0.0000
  Si     Si        0.329495148294824    0.239829004037811    0.291350939122671  0.0000
  Si     Si        0.671132126087981    0.722178340332083    0.043895693505556  0.0000
  O1     O1        0.090200025327704    0.196811982573267    0.394643723661727  0.0000
  O1     O1        0.419457935421472    0.746982032019615    0.389362028310015  0.0000
  O1     O1        0.871083344126240    0.127392661649051    0.622676189229290  0.0000
  O3     O3        0.618988366896483    0.885803217390000    0.636675447908364  0.0000
  O3     O3        0.905340098392901    0.769798502915946    0.655631410470084  0.0000
  O3     O3        0.578336170343516    0.210315872383088    0.634119197061201  0.0000
  O1     O1        0.125146259727331    0.852061098565226    0.397392007460789  0.0000
  O3     O3        0.373376723456893    0.094288031774809    0.376174461360613  0.0000
  O1     O1        0.970548066584529    0.961501131756917    0.454258274878708  0.0000
  O3     O3        0.475482823288776    0.979747460589154    0.570836155492279  0.0000
  O1     O1        0.026860154472479    0.987823516668605    0.207096687286327  0.0000
  O1     O1        0.528445544788854    0.991905698936060    0.320738836707627  0.0000
  O1     O1        0.021490891371323    0.009112966952540    0.698838620062959  0.0000
  O3     O3        0.525816041722337    0.997714074018310    0.809340574931943  0.0000
  O1     O1        0.584988665085608    0.213700972299008    0.136726656597546  0.0000
  O1     O1        0.912178968952287    0.750739781330945    0.136674237178446  0.0000
  O1     O1        0.374414884402781    0.094963684560435    0.885086241023016  0.0000
  O1     O1        0.129696219253999    0.873631374591184    0.882578130244929  0.0000
  O1     O1        0.417012480359364    0.749326726732950    0.883594131233871  0.0000
  O1     O1        0.077039830935539    0.215889170875684    0.895852710437541  0.0000
  O3     O3        0.629478468615775    0.861170843679971    0.132368053792671  0.0000
  O1     O1        0.876494990190691    0.097207523349286    0.134680289056290  0.0000
  O1     O1        0.478204067374385    0.965993717431077    0.066926050784529  0.0000
  O1     O1        0.976772899924047    0.951283792899561    0.950892501620148  0.0000
  O1     O1        0.159344268170359    0.512405338275725    0.363170615830620  0.0000
  O3     O3        0.345802410771843    0.426568041294615    0.349011217051003  0.0000
  O3     O3        0.835582414061775    0.475280134340479    0.671135753440144  0.0000
  O1     O1        0.645289754985167    0.537145018211028    0.667225716737489  0.0000
  O3     O3        0.239638723604200    0.208666858768664    0.294553167199837  0.0000
  O1     O1        0.270492810237844    0.742366242258623    0.298707901400714  0.0000
  O1     O1        0.728506669237234    0.232556125017376    0.724773657211022  0.0000
  O3     O3        0.763273699690420    0.763604971002042    0.725965449373351  0.0000
  O1     O1        0.117591382367089    0.332067096287228    0.143095781431439  0.0000
  O1     O1        0.390404160143790    0.628131086065784    0.137637728041254  0.0000
  O1     O1        0.860087439929716    0.230986700124217    0.880373336588575  0.0000
  O3     O3        0.639387109129860    0.735127135582312    0.894438317203000  0.0000
  O3     O3        0.871791040873012    0.631109828087169    0.882778322548146  0.0000
  O1     O1        0.608277030940037    0.340756914471164    0.884316133160716  0.0000
  O1     O1        0.140747830049380    0.732324559958108    0.139692209976074  0.0000
  O3     O3        0.357631974555141    0.232246490381903    0.141665884810431  0.0000
  O3     O3        0.657645967618566    0.530788127220732    0.098277408384013  0.0000
  O1     O1        0.842327623883791    0.440843903229158    0.105037281319507  0.0000
  O1     O1        0.341608667769096    0.439115873767906    0.919265935058278  0.0000
  O1     O1        0.157213909327778    0.521196177272182    0.922379291451672  0.0000
  O1     O1        0.730936657973653    0.216261667136527    0.036048935218787  0.0000
  O3     O3        0.760624230288114    0.755098686032342    0.047947695144478  0.0000
  O1     O1        0.229970065112374    0.202659172475253    0.974013701825198  0.0000
  O1     O1        0.269904295728643    0.751427807476460    0.984863073637872  0.0000
