data_c00834.vasp
_audit_creation_method             Generated by GULP
_audit_author_name                 Salvador R. G. Balestra
_symmetry_space_group_name_H-M     'P 1             '
_symmetry_Int_Tables_number        1

loop_
_symmetry_equiv_pos_site_id
_symmetry_equiv_pos_as_xyz
_cell_length_a                       17.7467
_cell_length_b                        7.8065
_cell_length_c                       10.0464
_cell_angle_alpha                   90.4381
_cell_angle_beta                    90.1684
_cell_angle_gamma                   89.6314

loop_
_atom_site_label
_atom_site_type_symbol
_atom_site_fract_x
_atom_site_fract_y
_atom_site_fract_z
_atom_site_charge
  Ge     Ge        0.052090000000021    0.000000000000000    0.372269999999958  0.0000
  Ge     Ge        0.448643783346624    0.965674520922079    0.341844478873456  0.0000
  Ge     Ge        0.944635755384363    0.966964128659108    0.630563217594439  0.0000
  Ge     Ge        0.550276732004474    0.028234186205360    0.082450199809091  0.0000
  Ge     Ge        0.950318150657708    0.966766709570642    0.116839053000408  0.0000
  Ge     Ge        0.448428965397444    0.969795412238372    0.820544632289939  0.0000
  Ge     Ge        0.058622333287926    0.024725393554310    0.876117944738458  0.0000
  Ge     Ge        0.146909036393410    0.316062930701458    0.251156293537840  0.0000
  Ge     Ge        0.353599187154265    0.646076899760063    0.266284412126909  0.0000
  Ge     Ge        0.827500453286313    0.262177904610524    0.691096297365292  0.0000
  Ge     Ge        0.669273788621395    0.718732626171347    0.682626334957545  0.0000
  Ge     Ge        0.174247893356380    0.721137057370704    0.262556993728295  0.0000
  Ge     Ge        0.325087684528903    0.240366851345876    0.261308475280099  0.0000
  Ge     Ge        0.653080377930173    0.335445578990954    0.015240427779241  0.0000
  Ge     Ge        0.849056180821918    0.659019503703723    0.999822718787510  0.0000
  Ge     Ge        0.328736447542568    0.250191589865847    0.937952562441917  0.0000
  Ge     Ge        0.176808626576836    0.730351289677332    0.941888753537092  0.0000
  Ge     Ge        0.356267716254354    0.654828211734641    0.942651882902104  0.0000
  Ge     Ge        0.676510873721472    0.745598832460263    0.011518381093911  0.0000
  Ge     Ge        0.831125215962615    0.256390449011898    0.011291102772589  0.0000
  Si     Si        0.557268952748002    0.012764702052209    0.578748126142428  0.0000
  Si     Si        0.840927026522444    0.648085272303120    0.674450991201826  0.0000
  Si     Si        0.649043406819499    0.321256572960184    0.700498023870226  0.0000
  Si     Si        0.154985678961384    0.335429389168271    0.934512056410737  0.0000
  O1     O1        0.076805096963964    0.204935959658410    0.326736970752787  0.0000
  O1     O1        0.416756230537398    0.760896053982596    0.361437336141758  0.0000
  O1     O1        0.873905206142277    0.110490544187249    0.597092878946555  0.0000
  O3     O3        0.617193249693532    0.859728824180992    0.589068981363907  0.0000
  O3     O3        0.909482284093208    0.759135845446670    0.622406954669589  0.0000
  O2     O2        0.591907023299087    0.195048092395084    0.622590457687702  0.0000
  O1     O1        0.128071112380328    0.865257172872927    0.362352364279070  0.0000
  O1     O1        0.374050891062795    0.104052812412097    0.362504119076893  0.0000
  O1     O1        0.022339768912143    0.997025543236948    0.535208992715948  0.0000
  O3     O3        0.529766827371696    0.020611304177988    0.426322232235481  0.0000
  O1     O1        0.975462022214350    0.935072692574936    0.280291033948511  0.0000
  O1     O1        0.474102966517780    0.985605318176686    0.176058833878347  0.0000
  O1     O1        0.977087855503257    0.991245024250028    0.791330665278885  0.0000
  O3     O3        0.480532552355504    0.973198690274845    0.657591310619684  0.0000
  O1     O1        0.588294239040093    0.228721220590200    0.107391898494329  0.0000
  O1     O1        0.926140271484025    0.771576778708187    0.045372329684103  0.0000
  O1     O1        0.371022643436710    0.101088265962287    0.837902097725794  0.0000
  O1     O1        0.125263873133337    0.868249282988511    0.846066099077222  0.0000
  O1     O1        0.422437017750187    0.763101375288253    0.854578035159582  0.0000
  O3     O3        0.096686597828095    0.226340415266716    0.846971659717671  0.0000
  O1     O1        0.621212382632542    0.878684335375484    0.103381715469776  0.0000
  O1     O1        0.878158852230745    0.112230232650012    0.109136249911100  0.0000
  O1     O1        0.522152093615717    0.029461102835506    0.917922249737315  0.0000
  O1     O1        0.031540132966047    0.030735819153207    0.040875510679139  0.0000
  O1     O1        0.157938871276936    0.516879513486260    0.319049245534174  0.0000
  O1     O1        0.339210722226098    0.444842723035004    0.323702245821695  0.0000
  O3     O3        0.843931555671494    0.457386820297926    0.613668733431919  0.0000
  O3     O3        0.650477454501478    0.508365354647688    0.634962275855014  0.0000
  O1     O1        0.230039976305863    0.201288816242963    0.263445000410483  0.0000
  O1     O1        0.269393127948197    0.757611237912819    0.263479277294134  0.0000
  O3     O3        0.731145270127353    0.232462305177308    0.696977178831984  0.0000
  O3     O3        0.763550011691847    0.750116980083337    0.645513690386611  0.0000
  O3     O3        0.126725593711278    0.358994350443473    0.085981820240479  0.0000
  O1     O1        0.385286293395767    0.633283655401079    0.104860470029154  0.0000
  O1     O1        0.861865042524299    0.232955223532890    0.849479350269179  0.0000
  O1     O1        0.650041165382278    0.759759685259049    0.845933833009365  0.0000
  O3     O3        0.840727907877298    0.606019015061546    0.832369115218030  0.0000
  O3     O3        0.622324312759367    0.348877184343072    0.850592361075956  0.0000
  O1     O1        0.143073427629398    0.748831745318754    0.101268836773396  0.0000
  O1     O1        0.358404436828942    0.228107142242274    0.100062771282825  0.0000
  O1     O1        0.665773804847454    0.539199855839462    0.069600084599625  0.0000
  O1     O1        0.848112305836313    0.460834963067081    0.071254188537984  0.0000
  O1     O1        0.347264348611529    0.451586801017726    0.879348066238662  0.0000
  O3     O3        0.167043541855346    0.523031280713683    0.876722843151153  0.0000
  O1     O1        0.735976984881633    0.220204896551385    0.017075785464091  0.0000
  O1     O1        0.770863833768135    0.785002887413073    0.032001120049645  0.0000
  O3     O3        0.232015870871932    0.224375727576311    0.939551924358319  0.0000
  O1     O1        0.271846050237017    0.766834961795069    0.939417570776242  0.0000
