data_c00858.vasp
_audit_creation_method             Generated by GULP
_audit_author_name                 Salvador R. G. Balestra
_symmetry_space_group_name_H-M     'P 1             '
_symmetry_Int_Tables_number        1

loop_
_symmetry_equiv_pos_site_id
_symmetry_equiv_pos_as_xyz
_cell_length_a                       17.3733
_cell_length_b                        7.7599
_cell_length_c                       10.5126
_cell_angle_alpha                   88.7904
_cell_angle_beta                    91.1811
_cell_angle_gamma                   88.7779

loop_
_atom_site_label
_atom_site_type_symbol
_atom_site_fract_x
_atom_site_fract_y
_atom_site_fract_z
_atom_site_charge
  Ge     Ge        0.052090000000021    0.000000000000000    0.372269999999958  0.0000
  Ge     Ge        0.453828611856634    0.006817473067109    0.379467373310772  0.0000
  Ge     Ge        0.940384728303553    0.005350915554668    0.619434529903858  0.0000
  Ge     Ge        0.546832427687663    0.026539740113497    0.114540044253641  0.0000
  Ge     Ge        0.944003559859155    0.019544665618957    0.116380638949877  0.0000
  Ge     Ge        0.431162935700746    0.037797396701210    0.872614622129356  0.0000
  Ge     Ge        0.047167181010608    0.024721531025769    0.875461542778946  0.0000
  Ge     Ge        0.175137993637609    0.276833378557232    0.301078627907691  0.0000
  Ge     Ge        0.328100032219645    0.735126895677434    0.301293779508028  0.0000
  Ge     Ge        0.815055494044132    0.288701419965322    0.734360406030056  0.0000
  Ge     Ge        0.837770168228566    0.705799348927905    0.730964225867328  0.0000
  Ge     Ge        0.632132196345870    0.355675918109091    0.729207103065049  0.0000
  Ge     Ge        0.630608703473209    0.366643372705864    0.044413344321083  0.0000
  Ge     Ge        0.853794094490082    0.693590367892868    0.034257455112408  0.0000
  Ge     Ge        0.350547500171654    0.364097308018341    0.990231075554509  0.0000
  Ge     Ge        0.134804209210425    0.693768225856130    0.004349983124451  0.0000
  Ge     Ge        0.316930575580099    0.767531393900863    0.994774117293188  0.0000
  Ge     Ge        0.167031286521912    0.291028944443287    0.993272758400160  0.0000
  Ge     Ge        0.674095999774806    0.747929346860522    0.042814601113560  0.0000
  Ge     Ge        0.816257260926872    0.291056064626161    0.039538169515497  0.0000
  Si     Si        0.541555873057209    0.034535035108054    0.642636831970906  0.0000
  Si     Si        0.662721118698135    0.743272233206608    0.732817877782941  0.0000
  Si     Si        0.149439308388568    0.680857980076575    0.307166993037794  0.0000
  Si     Si        0.354890900834034    0.329259008506049    0.290207273524352  0.0000
  O1     O1        0.127668256618806    0.137539473476265    0.397200360261447  0.0000
  O1     O1        0.380182362151502    0.865067985134876    0.398218174829469  0.0000
  O1     O1        0.867074120391826    0.152465659050558    0.642589295901970  0.0000
  O2     O2        0.611978940017255    0.916816207089417    0.704693320185095  0.0000
  O1     O1        0.903136193712520    0.804311927917290    0.635509284431241  0.0000
  O3     O3        0.565834789253895    0.231994004043501    0.649360463576650  0.0000
  O3     O3        0.089203893597077    0.790270610604932    0.388513686363640  0.0000
  O3     O3        0.418087371735432    0.216826696808731    0.370711063947612  0.0000
  O1     O1        0.975917093016287    0.028352398903907    0.469324367075829  0.0000
  O3     O3        0.522964228320285    0.984734650024605    0.499633540838868  0.0000
  O1     O1        0.016711940965077    0.054469119339593    0.222849399051481  0.0000
  O1     O1        0.501761703007096    0.950122847321228    0.245430533190238  0.0000
  O1     O1        0.018259126338974    0.036456173205198    0.719971154244009  0.0000
  O3     O3        0.464353043884703    0.006583768952396    0.721578189338943  0.0000
  O1     O1        0.564798317831420    0.242973935036016    0.122731179151720  0.0000
  O1     O1        0.922309075541080    0.804291817110391    0.117905139356280  0.0000
  O1     O1        0.413899475209378    0.253217871962021    0.898733246254419  0.0000
  O1     O1        0.065044322538861    0.813309561814352    0.926330052588431  0.0000
  O1     O1        0.347875629855139    0.928452386876735    0.895808176885629  0.0000
  O1     O1        0.129530810225276    0.140615446893255    0.895146990875313  0.0000
  O1     O1        0.637764651387507    0.936902964458666    0.094525619608264  0.0000
  O1     O1        0.860999304846767    0.139534693382308    0.137427252581154  0.0000
  O1     O1        0.496986910450208    0.958287406220685    0.983326157963671  0.0000
  O1     O1        0.976160160562177    0.099068335355714    0.971616271459596  0.0000
  O3     O3        0.131464422652353    0.479663580262575    0.311410369416232  0.0000
  O3     O3        0.370984227615966    0.531652883896885    0.294898669837372  0.0000
  O1     O1        0.855787586205968    0.488314028782936    0.734244172005139  0.0000
  O3     O3        0.615155514010215    0.575648033764992    0.695918051063664  0.0000
  O3     O3        0.271171876707999    0.291353936557819    0.346090281774730  0.0000
  O3     O3        0.236231519737170    0.710383845349303    0.358382444336384  0.0000
  O1     O1        0.722136752511541    0.311613748567648    0.675491114642076  0.0000
  O3     O3        0.745322068726807    0.752918655800590    0.667283671533514  0.0000
  O1     O1        0.172831024899763    0.210438267358755    0.146791900825644  0.0000
  O1     O1        0.322802024248595    0.827595512677621    0.151559132909431  0.0000
  O1     O1        0.807547084217321    0.212371297531796    0.887702332340416  0.0000
  O3     O3        0.688966797512709    0.717811317705831    0.880573852825478  0.0000
  O1     O1        0.854849686691582    0.781483769719512    0.881295421046693  0.0000
  O1     O1        0.619964259771571    0.309167304346406    0.887263528202299  0.0000
  O3     O3        0.142256251625030    0.753159779832323    0.162390319738362  0.0000
  O3     O3        0.359602009172347    0.272974362793223    0.143436828633337  0.0000
  O1     O1        0.613656396877766    0.579907455838520    0.076500737879971  0.0000
  O1     O1        0.870287275568914    0.475982033358311    0.035546967062324  0.0000
  O1     O1        0.370625397828270    0.578320463080303    0.984530867006912  0.0000
  O1     O1        0.113391655720694    0.480346673625253    0.991806479965386  0.0000
  O1     O1        0.725772142504875    0.338536132711611    0.091810437401871  0.0000
  O1     O1        0.765823099902622    0.729872840622947    0.103000356197787  0.0000
  O1     O1        0.256973474823593    0.340383036466454    0.941072294199691  0.0000
  O1     O1        0.224569227207073    0.729457515079781    0.945295943592087  0.0000
