data_c00879.vasp
_audit_creation_method             Generated by GULP
_audit_author_name                 Salvador R. G. Balestra
_symmetry_space_group_name_H-M     'P 1             '
_symmetry_Int_Tables_number        1

loop_
_symmetry_equiv_pos_site_id
_symmetry_equiv_pos_as_xyz
_cell_length_a                       17.6414
_cell_length_b                        7.8258
_cell_length_c                       10.0714
_cell_angle_alpha                   89.9440
_cell_angle_beta                    90.2438
_cell_angle_gamma                   91.3434

loop_
_atom_site_label
_atom_site_type_symbol
_atom_site_fract_x
_atom_site_fract_y
_atom_site_fract_z
_atom_site_charge
  Ge     Ge        0.052090000000021    0.000000000000000    0.372269999999958  0.0000
  Ge     Ge        0.444866061196030    0.052191982081745    0.382488183200360  0.0000
  Ge     Ge        0.940263861436609    0.046733825234634    0.613289121073619  0.0000
  Ge     Ge        0.552876014965499    0.991790723792456    0.132016325991594  0.0000
  Ge     Ge        0.956141226206832    0.058869243564624    0.107841900254206  0.0000
  Ge     Ge        0.449192124918071    0.044109903699057    0.876031384391174  0.0000
  Ge     Ge        0.059565161935027    0.998177807519052    0.850041336028497  0.0000
  Ge     Ge        0.174488362356265    0.282530218165520    0.296152574353003  0.0000
  Ge     Ge        0.327289858391021    0.758503722186567    0.303750209155930  0.0000
  Ge     Ge        0.641900126183506    0.681721489551338    0.735295911501821  0.0000
  Ge     Ge        0.824845829715450    0.748499315273091    0.723813544916134  0.0000
  Ge     Ge        0.668190609175997    0.280965438915036    0.737707116657444  0.0000
  Ge     Ge        0.146985021889093    0.684176307338742    0.301325718848370  0.0000
  Ge     Ge        0.675698418021813    0.280971371598842    0.061846030310583  0.0000
  Ge     Ge        0.830149528263284    0.771748284582803    0.042935511735412  0.0000
  Ge     Ge        0.359138684713745    0.363845052780936    0.992251050955968  0.0000
  Ge     Ge        0.153388035602847    0.687010272337570    0.978135629067854  0.0000
  Ge     Ge        0.178843643474159    0.283888972574071    0.973737908252953  0.0000
  Ge     Ge        0.651454298991886    0.684131807297146    0.057678645905924  0.0000
  Ge     Ge        0.852422283703475    0.367581328502463    0.052332451667578  0.0000
  Si     Si        0.551005021569382    0.993484026341965    0.626449168803990  0.0000
  Si     Si        0.845429654063735    0.354365489202373    0.733069444071904  0.0000
  Si     Si        0.351386244257223    0.361789801508336    0.304917851373758  0.0000
  Si     Si        0.331720648594403    0.761493137464166    0.990033733931815  0.0000
  O1     O1        0.128312765886075    0.139018456792266    0.395768003190935  0.0000
  O1     O1        0.376928618337770    0.894514493482036    0.405917800222432  0.0000
  O3     O3        0.907467469134354    0.244552255449478    0.657576369370594  0.0000
  O3     O3        0.574775067421684    0.799275348054331    0.651602435876942  0.0000
  O1     O1        0.872039331495854    0.889199216082030    0.621546095926320  0.0000
  O3     O3        0.623261380867956    0.116416887636983    0.653902924361893  0.0000
  O1     O1        0.083082287639920    0.795591344811077    0.393581078795139  0.0000
  O3     O3        0.406564487172256    0.253018823916516    0.398633559953506  0.0000
  O1     O1        0.970850531952035    0.052870585952639    0.450115835453822  0.0000
  O3     O3        0.525548184925101    0.020149558842488    0.474388903278205  0.0000
  O1     O1        0.032105416069633    0.017766805162737    0.203426309258639  0.0000
  O1     O1        0.474101833271401    0.031895714877404    0.220304305227065  0.0000
  O1     O1        0.024780299781405    0.001455375132670    0.690419076391639  0.0000
  O3     O3        0.476991538273869    0.040364109135505    0.710968317908673  0.0000
  O1     O1        0.623473449969541    0.144392316061535    0.157859101871932  0.0000
  O1     O1        0.882063234549060    0.914869146658895    0.134220729304389  0.0000
  O1     O1        0.425463220401327    0.252619994388176    0.908328689337674  0.0000
  O1     O1        0.090977974391543    0.796186949771098    0.883106572165307  0.0000
  O3     O3        0.373284786432370    0.903553753548007    0.900264286676075  0.0000
  O1     O1        0.134818205509651    0.138075644926369    0.872061393140138  0.0000
  O1     O1        0.590906125477435    0.794007041086157    0.156451514814326  0.0000
  O1     O1        0.923129449813230    0.262798971833735    0.130685223296125  0.0000
  O1     O1        0.526594757429227    0.991058092263623    0.966205847570937  0.0000
  O1     O1        0.982836331660908    0.048933421011747    0.943796467531878  0.0000
  O1     O1        0.155962122010398    0.481774868188415    0.359455244117475  0.0000
  O3     O3        0.339027536809898    0.549779515729446    0.360634253702357  0.0000
  O3     O3        0.836868855193242    0.540369180167458    0.667347441064680  0.0000
  O1     O1        0.646554183818819    0.476942778540905    0.672885888462135  0.0000
  O3     O3        0.271647804484647    0.256622254253010    0.294283241511942  0.0000
  O1     O1        0.232785220053429    0.796281256658730    0.307890683893166  0.0000
  O3     O3        0.765273455306733    0.251293451621336    0.728410825028153  0.0000
  O1     O1        0.729291497397570    0.782112086996947    0.723475024968649  0.0000
  O1     O1        0.144689864006464    0.267468268059858    0.133297307129959  0.0000
  O3     O3        0.360380736662603    0.777620835345537    0.141975726240588  0.0000
  O3     O3        0.870790981599383    0.389054512162323    0.883551700773545  0.0000
  O1     O1        0.616819447981913    0.659699417274926    0.898331918803835  0.0000
  O1     O1        0.860739566632734    0.781848763949476    0.880258351397400  0.0000
  O1     O1        0.642306018735896    0.270174404144200    0.900874712740920  0.0000
  O1     O1        0.119529692147905    0.673202217022894    0.137322191935391  0.0000
  O3     O3        0.386135676770712    0.375499448762349    0.157644860266498  0.0000
  O1     O1        0.667249816706769    0.486900254959397    0.121222828982832  0.0000
  O1     O1        0.843306314849908    0.570039501882866    0.109437948566416  0.0000
  O3     O3        0.349967114636644    0.572104158453997    0.936548456019708  0.0000
  O1     O1        0.162257610007786    0.486336335594867    0.915043774998231  0.0000
  O1     O1        0.770862442741159    0.243109140718765    0.066003576624871  0.0000
  O1     O1        0.734616372658977    0.804901248739612    0.044622041453199  0.0000
  O1     O1        0.274694840883474    0.254478005376086    0.974602470120774  0.0000
  O3     O3        0.241902560645739    0.789485401632469    0.985834220482839  0.0000
