data_c00801.vasp
_audit_creation_method             Generated by GULP
_audit_author_name                 Salvador R. G. Balestra
_symmetry_space_group_name_H-M     'P 1             '
_symmetry_Int_Tables_number        1

loop_
_symmetry_equiv_pos_site_id
_symmetry_equiv_pos_as_xyz
_cell_length_a                       17.5817
_cell_length_b                        7.8326
_cell_length_c                       10.1677
_cell_angle_alpha                   89.2035
_cell_angle_beta                    90.3019
_cell_angle_gamma                   88.1629

loop_
_atom_site_label
_atom_site_type_symbol
_atom_site_fract_x
_atom_site_fract_y
_atom_site_fract_z
_atom_site_charge
  Ge     Ge        0.052090000000021    0.000000000000000    0.372269999999958  0.0000
  Ge     Ge        0.449181071693354    0.949795269385490    0.384118683291303  0.0000
  Ge     Ge        0.944388477274300    0.958747968321528    0.619695630178968  0.0000
  Ge     Ge        0.549929710707072    0.010877111482951    0.124946646919832  0.0000
  Ge     Ge        0.956206858914910    0.941894769544366    0.108412868394570  0.0000
  Ge     Ge        0.445579666892092    0.963660471390939    0.866486051432549  0.0000
  Ge     Ge        0.062277589217103    0.004353863865864    0.855908157676807  0.0000
  Ge     Ge        0.146665251621142    0.313462415640013    0.294155609407105  0.0000
  Ge     Ge        0.356123900057568    0.639559546959960    0.299545927852943  0.0000
  Ge     Ge        0.827668865668364    0.259097888386768    0.727347218000833  0.0000
  Ge     Ge        0.669758357330936    0.728432241628955    0.737676853110239  0.0000
  Ge     Ge        0.644063151829664    0.328537583883285    0.732285399175894  0.0000
  Ge     Ge        0.175451915684338    0.718645152783724    0.291549256944490  0.0000
  Ge     Ge        0.327374244735657    0.234462504892221    0.295441015582883  0.0000
  Ge     Ge        0.649726090997050    0.319859884033156    0.052222389660542  0.0000
  Ge     Ge        0.852756509762769    0.634176511522443    0.052999613902158  0.0000
  Ge     Ge        0.356162011844533    0.642486616895015    0.983581192705040  0.0000
  Ge     Ge        0.150516311788164    0.321444745136047    0.978271760244419  0.0000
  Ge     Ge        0.674808120722969    0.721798621106249    0.059427844646520  0.0000
  Ge     Ge        0.829795525069257    0.231485115156128    0.044330190272951  0.0000
  Si     Si        0.552767110084877    0.021586577518815    0.624743840808412  0.0000
  Si     Si        0.847432097316423    0.652586632017413    0.736356688977609  0.0000
  Si     Si        0.331391607190542    0.248518010454578    0.984898797894467  0.0000
  Si     Si        0.175345868717598    0.714957917207637    0.980539196407589  0.0000
  O1     O1        0.084407731420364    0.202913362250331    0.390509442234613  0.0000
  O1     O1        0.417279398524479    0.746670354387893    0.400103970762177  0.0000
  O1     O1        0.877307426468855    0.120350793018988    0.628843228551880  0.0000
  O3     O3        0.624515324938216    0.896266077120646    0.656115742982602  0.0000
  O3     O3        0.910142068194516    0.762045871547091    0.663111909230137  0.0000
  O3     O3        0.576942310331510    0.214475505234927    0.647710389781933  0.0000
  O1     O1        0.126683543157831    0.853825540035276    0.392517416042690  0.0000
  O1     O1        0.374921884454367    0.095490477254911    0.399659340279024  0.0000
  O1     O1        0.972457366892553    0.953576038678671    0.456942010608357  0.0000
  O3     O3        0.528941450511695    0.995619300955304    0.473394736169658  0.0000
  O1     O1        0.030872474859262    0.981248865810120    0.206065433856106  0.0000
  O1     O1        0.474269984763270    0.973828903114909    0.220413513369898  0.0000
  O1     O1        0.029779486037037    0.994576714484603    0.696759318339375  0.0000
  O3     O3        0.476942401830669    0.976900839243546    0.705198056072680  0.0000
  O1     O1        0.586812108868613    0.209464716960768    0.145205130525148  0.0000
  O1     O1        0.923728785028642    0.737630105825091    0.129538827235621  0.0000
  O3     O3        0.370351105314939    0.105671769912518    0.894427146491898  0.0000
  O3     O3        0.137122949906374    0.861139769672835    0.888549023003936  0.0000
  O1     O1        0.414147701216925    0.758994432059394    0.886247521101928  0.0000
  O1     O1        0.093739721154348    0.208104471759285    0.878171989711588  0.0000
  O1     O1        0.622323542798230    0.859619318324933    0.151997210706597  0.0000
  O1     O1        0.880644044231784    0.083775714733768    0.134834829857070  0.0000
  O1     O1        0.522535970586685    0.001689134817970    0.961634238539629  0.0000
  O1     O1        0.983544481863586    0.962369634765143    0.946590195629777  0.0000
  O1     O1        0.160408769137910    0.513625405787680    0.349260989121391  0.0000
  O1     O1        0.342308204859044    0.437256746718347    0.353659136091857  0.0000
  O3     O3        0.839176441433327    0.468141233461873    0.671330184217387  0.0000
  O1     O1        0.648663061310435    0.534673317744129    0.671587562952269  0.0000
  O1     O1        0.232429906627330    0.198334407832998    0.295070487633958  0.0000
  O1     O1        0.270592535120912    0.754712236015328    0.296116797894833  0.0000
  O1     O1        0.731713406839904    0.226540169851779    0.722295166162191  0.0000
  O3     O3        0.767038096874959    0.757638444275890    0.729729484083352  0.0000
  O1     O1        0.113939030235241    0.320211441423552    0.133823826591215  0.0000
  O1     O1        0.390980466485885    0.639433596460401    0.141222444996195  0.0000
  O1     O1        0.861428959058210    0.224738210671271    0.883822619971115  0.0000
  O1     O1        0.642962915858953    0.732817852108145    0.898679352212996  0.0000
  O3     O3        0.871669215224609    0.615414563001830    0.886208294290516  0.0000
  O1     O1        0.616836390877783    0.344875121998800    0.892893701005381  0.0000
  O3     O3        0.143459517245140    0.728435979144722    0.128572647215668  0.0000
  O3     O3        0.361711489041466    0.228879130434181    0.134614515164170  0.0000
  O1     O1        0.664261514860128    0.515070981682347    0.117105248125710  0.0000
  O1     O1        0.843490464646605    0.431239226167227    0.110424021492269  0.0000
  O3     O3        0.351783139600505    0.434952627555904    0.928523296850368  0.0000
  O3     O3        0.155980315971914    0.530594977705125    0.922600283770015  0.0000
  O1     O1        0.733906421791170    0.200103051808852    0.043512548453666  0.0000
  O1     O1        0.770264257556359    0.757528752672630    0.066403880085711  0.0000
  O3     O3        0.241090422749082    0.228683959877549    0.985717497774661  0.0000
  O3     O3        0.265664847974097    0.735294362426794    0.985785986225725  0.0000
