data_c00849.vasp
_audit_creation_method             Generated by GULP
_audit_author_name                 Salvador R. G. Balestra
_symmetry_space_group_name_H-M     'P 1             '
_symmetry_Int_Tables_number        1

loop_
_symmetry_equiv_pos_site_id
_symmetry_equiv_pos_as_xyz
_cell_length_a                       17.6190
_cell_length_b                        7.8305
_cell_length_c                       10.1570
_cell_angle_alpha                   88.2046
_cell_angle_beta                    90.5371
_cell_angle_gamma                   91.3624

loop_
_atom_site_label
_atom_site_type_symbol
_atom_site_fract_x
_atom_site_fract_y
_atom_site_fract_z
_atom_site_charge
  Ge     Ge        0.052090000000021    0.000000000000000    0.372269999999958  0.0000
  Ge     Ge        0.445356211202760    0.054237463247947    0.362315492445832  0.0000
  Ge     Ge        0.941194390043151    0.075099914672023    0.610663096642839  0.0000
  Ge     Ge        0.552252873047008    0.012115330467877    0.113622442660929  0.0000
  Ge     Ge        0.940647897778480    0.059947221053885    0.123777849623739  0.0000
  Ge     Ge        0.445166317585990    0.079804014364871    0.861456639294686  0.0000
  Ge     Ge        0.042894064667367    0.011860679415830    0.868610684478526  0.0000
  Ge     Ge        0.172719411271731    0.288575109809666    0.254913994885953  0.0000
  Ge     Ge        0.326424827858625    0.761971392684811    0.255315401593504  0.0000
  Ge     Ge        0.843549988737669    0.387437068929123    0.674671427700694  0.0000
  Ge     Ge        0.819736570415074    0.786688565910058    0.685334176980351  0.0000
  Ge     Ge        0.661670733863338    0.319802531029761    0.684049144006554  0.0000
  Ge     Ge        0.144289733421926    0.688430548370539    0.258401181363000  0.0000
  Ge     Ge        0.820721678897895    0.776898708078070    0.004525572288927  0.0000
  Ge     Ge        0.345928152071852    0.385077134265355    0.930966389715621  0.0000
  Ge     Ge        0.143874609108880    0.700999162167103    0.936779895026169  0.0000
  Ge     Ge        0.322736648848876    0.790050887308774    0.937508918067898  0.0000
  Ge     Ge        0.168095120082691    0.297086695763086    0.935778354432611  0.0000
  Ge     Ge        0.640259103113153    0.696130603266244    0.997385712300032  0.0000
  Ge     Ge        0.845539204033537    0.374866160404355    0.996941639382072  0.0000
  Si     Si        0.548158273557180    0.027906650758749    0.616390655225397  0.0000
  Si     Si        0.640632127948571    0.714775464998438    0.687937370369282  0.0000
  Si     Si        0.350104918389915    0.365945678148849    0.244631112151474  0.0000
  Si     Si        0.667696250386514    0.300638005815812    0.996647856979772  0.0000
  O1     O1        0.130959686900630    0.128735827636698    0.348311706214480  0.0000
  O1     O1        0.376145601504178    0.898429768705858    0.353871603014215  0.0000
  O1     O1        0.907331064186246    0.276987598217260    0.585003866154725  0.0000
  O2     O2        0.585953129607847    0.841624275974187    0.602521739949296  0.0000
  O1     O1        0.865183148457799    0.936184924257929    0.587588440841625  0.0000
  O3     O3        0.609907817588397    0.179727891854517    0.588806544918505  0.0000
  O1     O1        0.077718335516787    0.794451425919367    0.345233744189765  0.0000
  O3     O3        0.411621762060407    0.255579771300495    0.324152468874451  0.0000
  O1     O1        0.021872538082663    0.023783830305702    0.532015312885889  0.0000
  O3     O3        0.474800190953486    0.050676930010389    0.526652561181357  0.0000
  O1     O1        0.972529917080308    0.058098872212545    0.284255491585153  0.0000
  O1     O1        0.525220987301006    0.016193242541811    0.275104607374051  0.0000
  O1     O1        0.965004044611374    0.056133073162899    0.776807382558912  0.0000
  O3     O3        0.522769961444987    0.043032962290088    0.767772245261407  0.0000
  O3     O3        0.627869955756598    0.153195927828286    0.085177731597454  0.0000
  O1     O1        0.865469550916059    0.919911721159808    0.103786732235756  0.0000
  O1     O1        0.410509242076408    0.282162817290557    0.839634934415763  0.0000
  O1     O1        0.079112032167983    0.812995289896861    0.844702811270323  0.0000
  O1     O1        0.372286178272567    0.932881282810399    0.839724798989789  0.0000
  O1     O1        0.114504106052755    0.163049963148356    0.842541601960060  0.0000
  O1     O1        0.575611086609856    0.804137063432484    0.083407952853701  0.0000
  O1     O1        0.911213301414269    0.263286098450660    0.085286269931862  0.0000
  O1     O1        0.473935789241613    0.066450778778401    0.023713354333867  0.0000
  O1     O1        0.017148594929212    0.008129557980009    0.032505328236587  0.0000
  O1     O1        0.153352690932579    0.482752239254627    0.319655385123789  0.0000
  O3     O3        0.340008926429491    0.550289799148046    0.306665369953455  0.0000
  O1     O1        0.836747861768247    0.592905331099945    0.617153893541659  0.0000
  O3     O3        0.646559625507179    0.529557294403423    0.626651891296725  0.0000
  O3     O3        0.269868630898996    0.261823903531703    0.248500126192854  0.0000
  O1     O1        0.230766668112563    0.795449088069811    0.264231590832490  0.0000
  O1     O1        0.756114620806104    0.282799223509261    0.669189892336234  0.0000
  O3     O3        0.722708031724496    0.809170085040853    0.694739130908503  0.0000
  O1     O1        0.137966420932117    0.278130753578618    0.096802683003746  0.0000
  O1     O1        0.356942234521262    0.798622338228506    0.096939862894372  0.0000
  O1     O1        0.873568898367303    0.395553400502440    0.836009269947289  0.0000
  O3     O3        0.609364088690490    0.688268190345674    0.835100258575195  0.0000
  O1     O1        0.853010275204515    0.797562694719414    0.845000268284436  0.0000
  O3     O3        0.635393674210088    0.297330097142631    0.847589205096243  0.0000
  O1     O1        0.115025615708439    0.673650062880337    0.097770891274694  0.0000
  O3     O3        0.375353630628313    0.398196176940949    0.094422051491054  0.0000
  O3     O3        0.651722402123950    0.486893604174410    0.053693408111855  0.0000
  O1     O1        0.838536744939380    0.572181462764569    0.061664090585862  0.0000
  O1     O1        0.333116004817033    0.588686131758773    0.874991686422453  0.0000
  O1     O1        0.156864317424352    0.504392718945419    0.875600811869425  0.0000
  O3     O3        0.757414742930386    0.270126432958209    0.995611677350697  0.0000
  O1     O1        0.724923440409018    0.806313773670120    0.007787093712878  0.0000
  O1     O1        0.263458921669185    0.261720492705194    0.929002379810443  0.0000
  O1     O1        0.227060774996917    0.822987090793141    0.940001279596551  0.0000
