data_c00815.vasp
_audit_creation_method             Generated by GULP
_audit_author_name                 Salvador R. G. Balestra
_symmetry_space_group_name_H-M     'P 1             '
_symmetry_Int_Tables_number        1

loop_
_symmetry_equiv_pos_site_id
_symmetry_equiv_pos_as_xyz
_cell_length_a                       17.7320
_cell_length_b                        7.9025
_cell_length_c                       10.2578
_cell_angle_alpha                   88.6243
_cell_angle_beta                    90.5433
_cell_angle_gamma                   89.7709

loop_
_atom_site_label
_atom_site_type_symbol
_atom_site_fract_x
_atom_site_fract_y
_atom_site_fract_z
_atom_site_charge
  Ge     Ge        0.052090000000021    0.000000000000000    0.372269999999958  0.0000
  Ge     Ge        0.447993978779189    0.980291563234160    0.412975520978865  0.0000
  Ge     Ge        0.943171932562366    0.009699425091014    0.617929179685399  0.0000
  Ge     Ge        0.559548374147008    0.979543861643504    0.167550895000779  0.0000
  Ge     Ge        0.950547736100003    0.994834398420227    0.109030098528129  0.0000
  Ge     Ge        0.453527030544949    0.991415926677670    0.910582030542016  0.0000
  Ge     Ge        0.058043905580515    0.014425329371409    0.860133804810967  0.0000
  Ge     Ge        0.155695394740619    0.311104525814448    0.299721646848800  0.0000
  Ge     Ge        0.352660335659024    0.666048132109234    0.303114218337222  0.0000
  Ge     Ge        0.845264037464202    0.322213233935677    0.728381892962390  0.0000
  Ge     Ge        0.652538010620137    0.691605068468346    0.735684760432578  0.0000
  Ge     Ge        0.662579659884162    0.289409769058730    0.727499933925455  0.0000
  Ge     Ge        0.170073039130842    0.713052672537613    0.302582119521942  0.0000
  Ge     Ge        0.671979564695548    0.266622451438486    0.042441027203239  0.0000
  Ge     Ge        0.834954628342139    0.703092813759667    0.047268858170167  0.0000
  Ge     Ge        0.332703209986738    0.271536318805795    0.983665734306289  0.0000
  Ge     Ge        0.174074293875507    0.728261042531470    0.987015031673894  0.0000
  Ge     Ge        0.355695328837280    0.674952948912740    0.989912941792960  0.0000
  Ge     Ge        0.152279040489521    0.323085555485457    0.981740145686713  0.0000
  Ge     Ge        0.653326242005269    0.668128643425935    0.054204139641680  0.0000
  Si     Si        0.552923745506593    0.002154292174147    0.658512471705561  0.0000
  Si     Si        0.831791081820924    0.720967427148884    0.738455833775707  0.0000
  Si     Si        0.333846676844304    0.267749589444197    0.293788308524604  0.0000
  Si     Si        0.850554187835955    0.306460039704263    0.034005283245844  0.0000
  O1     O1        0.098612722861199    0.187711879818941    0.394794589092032  0.0000
  O1     O1        0.411658833777124    0.780755273491439    0.400243361712751  0.0000
  O1     O1        0.904577551335339    0.207709558602821    0.634559262981558  0.0000
  O3     O3        0.597329414803975    0.826377953073405    0.640202261786841  0.0000
  O3     O3        0.877321333539239    0.855681860521862    0.651765831789362  0.0000
  O3     O3        0.609492098432887    0.156996541933730    0.631107203537833  0.0000
  O1     O1        0.117257385663269    0.840811612444928    0.398358226758508  0.0000
  O3     O3        0.379080569023291    0.129939417452057    0.380365536924413  0.0000
  O1     O1        0.970945723311486    0.984655657871231    0.458945332825166  0.0000
  O3     O3        0.477496074901985    0.009309049317526    0.572916718588398  0.0000
  O1     O1        0.026670892679325    0.991454526352640    0.209315382096475  0.0000
  O1     O1        0.527936790900360    0.004863669183891    0.322846909204781  0.0000
  O1     O1        0.026984628660169    0.995142340892419    0.702219202036232  0.0000
  O3     O3        0.529200781460676    0.015122414946913    0.809703655667156  0.0000
  O1     O1        0.634860316779633    0.111332704955334    0.138591792075314  0.0000
  O1     O1        0.889220296317499    0.829846721109387    0.140736780768463  0.0000
  O1     O1        0.382749938831828    0.139338564482158    0.888429910478465  0.0000
  O1     O1        0.131291066909330    0.875800994076606    0.887473472906037  0.0000
  O1     O1        0.416109965263761    0.792958219718493    0.896219266559935  0.0000
  O1     O1        0.088171527574252    0.216711509870728    0.889841138471047  0.0000
  O1     O1        0.590374457420459    0.775769618716025    0.145737064761215  0.0000
  O3     O3        0.903339943778589    0.186937408270766    0.123212311287916  0.0000
  O1     O1        0.485165925326930    0.027292439244643    0.066195563042512  0.0000
  O1     O1        0.981005129468341    0.966970308750477    0.953096687003856  0.0000
  O1     O1        0.158778258824366    0.508952696147368    0.360800088632989  0.0000
  O3     O3        0.345540569134920    0.454678824405143    0.351153899028654  0.0000
  O3     O3        0.841209505108033    0.533994664682178    0.680695578254483  0.0000
  O1     O1        0.649924835580020    0.494536926493984    0.671431531961929  0.0000
  O3     O3        0.245657432802302    0.223075559431450    0.294456904481606  0.0000
  O1     O1        0.264691174025725    0.757223962661973    0.306988389830403  0.0000
  O1     O1        0.756477430255918    0.239306116986244    0.717026889014776  0.0000
  O3     O3        0.743762445529422    0.769320038315260    0.738915618074623  0.0000
  O1     O1        0.123160808244853    0.320678499543072    0.141184539170342  0.0000
  O1     O1        0.388830012168762    0.676795581272505    0.148719995481334  0.0000
  O3     O3        0.881315569674358    0.310616195021741    0.886224957032371  0.0000
  O1     O1        0.622630403252872    0.680516948511960    0.894074584229269  0.0000
  O3     O3        0.862539684946876    0.722895292695385    0.885866496191960  0.0000
  O1     O1        0.634640434198399    0.273486949285084    0.887262776104585  0.0000
  O1     O1        0.139249840241388    0.731053881365310    0.142814482082942  0.0000
  O3     O3        0.362689964010369    0.266287047637457    0.145798145353165  0.0000
  O1     O1        0.656907062363845    0.461451590535357    0.108216824617607  0.0000
  O3     O3        0.847043564737954    0.491723672635036    0.093612307753294  0.0000
  O1     O1        0.347529462125182    0.477025648227863    0.929780488892397  0.0000
  O1     O1        0.160913663514114    0.528488143970181    0.926988668177184  0.0000
  O3     O3        0.767168640690544    0.228363296878833    0.024768287136581  0.0000
  O1     O1        0.742081350481560    0.754681101217126    0.063183410228447  0.0000
  O1     O1        0.239049276994445    0.224530706515659    0.974207635097256  0.0000
  O1     O1        0.268585687571467    0.770609471632848    0.994325115350633  0.0000
