data_c00870.vasp
_audit_creation_method             Generated by GULP
_audit_author_name                 Salvador R. G. Balestra
_symmetry_space_group_name_H-M     'P 1             '
_symmetry_Int_Tables_number        1

loop_
_symmetry_equiv_pos_site_id
_symmetry_equiv_pos_as_xyz
_cell_length_a                       17.5985
_cell_length_b                        7.8500
_cell_length_c                       10.0885
_cell_angle_alpha                   89.0016
_cell_angle_beta                    90.6449
_cell_angle_gamma                   88.1711

loop_
_atom_site_label
_atom_site_type_symbol
_atom_site_fract_x
_atom_site_fract_y
_atom_site_fract_z
_atom_site_charge
  Ge     Ge        0.052090000000021    0.000000000000000    0.372269999999958  0.0000
  Ge     Ge        0.449764835698956    0.944040760786102    0.391021095887146  0.0000
  Ge     Ge        0.937821230844753    0.974241661993937    0.610812564328796  0.0000
  Ge     Ge        0.550739268210652    0.006993079629023    0.131709745405773  0.0000
  Ge     Ge        0.956261059400142    0.944891785091437    0.107426769233920  0.0000
  Ge     Ge        0.446490614371898    0.959419462293035    0.872126016621926  0.0000
  Ge     Ge        0.058525904278799    0.009654139568909    0.849503016926648  0.0000
  Ge     Ge        0.148011041124924    0.312872853919756    0.298485056533987  0.0000
  Ge     Ge        0.355624006261055    0.634571215002633    0.306276955271146  0.0000
  Ge     Ge        0.826057213429001    0.274922914231938    0.721156751960334  0.0000
  Ge     Ge        0.640908740908284    0.332037790383125    0.737344598679575  0.0000
  Ge     Ge        0.174422632885424    0.716566188847973    0.295977425337122  0.0000
  Ge     Ge        0.327895799130289    0.230900595992290    0.303384770676396  0.0000
  Ge     Ge        0.649821888000714    0.314694284409623    0.056246933660595  0.0000
  Ge     Ge        0.852108593227281    0.640464130764165    0.052669393533107  0.0000
  Ge     Ge        0.176758669504236    0.718994229664672    0.975221906784331  0.0000
  Ge     Ge        0.359566493791807    0.636268276723241    0.987996074703769  0.0000
  Ge     Ge        0.150985499835072    0.318659188808007    0.976859087032107  0.0000
  Ge     Ge        0.674140743152125    0.715771730543899    0.064129512627531  0.0000
  Ge     Ge        0.830682489293580    0.236282186207309    0.039406884224599  0.0000
  Si     Si        0.553240281975469    0.016978636209769    0.631747601601172  0.0000
  Si     Si        0.663803972948708    0.722587276309368    0.747589786741071  0.0000
  Si     Si        0.840745321450946    0.666244129468604    0.734914005917978  0.0000
  Si     Si        0.330465634892416    0.241583933224327    0.989104498462410  0.0000
  O1     O1        0.084931477463789    0.201514149000369    0.392597614880620  0.0000
  O1     O1        0.416047987596611    0.743269428167598    0.408054442728759  0.0000
  O1     O1        0.873711588537807    0.141293910846569    0.616434025548214  0.0000
  O2     O2        0.621346138902225    0.884960951576992    0.677081718361563  0.0000
  O3     O3        0.895465062722852    0.787285550775001    0.655036174827376  0.0000
  O3     O3        0.579318963024106    0.209278453554182    0.646600934259702  0.0000
  O1     O1        0.125186285935303    0.851540430123860    0.397487498717858  0.0000
  O1     O1        0.376685530195509    0.092119565654344    0.407526061461021  0.0000
  O1     O1        0.969315118710561    0.958065227782578    0.449761796662968  0.0000
  O3     O3        0.531407506862257    0.983921864519124    0.479468236444379  0.0000
  O1     O1        0.032141956638966    0.985053328602468    0.203450747423239  0.0000
  O1     O1        0.474672427598396    0.969763270421056    0.226352371678394  0.0000
  O1     O1        0.023210124837896    0.006053013960843    0.689974404533608  0.0000
  O3     O3        0.475367826536770    0.982519743364083    0.708874098855982  0.0000
  O1     O1        0.590597182132476    0.201476752160211    0.154895286233097  0.0000
  O1     O1        0.922772475803406    0.742340564261050    0.132092710785775  0.0000
  O3     O3        0.370198120555946    0.098217557239888    0.900675549149736  0.0000
  O1     O1        0.134744334008781    0.870384857313640    0.872697006066319  0.0000
  O1     O1        0.420551815363671    0.751373141949752    0.893812195036515  0.0000
  O1     O1        0.089083761367841    0.211067971989883    0.881144076118391  0.0000
  O1     O1        0.621496413945129    0.851364359047868    0.156591804495338  0.0000
  O1     O1        0.881668461173370    0.089072280444998    0.131137051220056  0.0000
  O1     O1        0.523164027447893    0.004290443618736    0.967265431373540  0.0000
  O1     O1        0.982581087272959    0.957148741464527    0.943830748729990  0.0000
  O1     O1        0.161199334399079    0.511851249830472    0.356220542337061  0.0000
  O1     O1        0.341812119259903    0.433087401016095    0.362754677855134  0.0000
  O3     O3        0.839415986335541    0.483204526070408    0.667417472370389  0.0000
  O3     O3        0.641603683895583    0.545064372073812    0.682407261819792  0.0000
  O1     O1        0.232903903432716    0.194874074595915    0.302867307378856  0.0000
  O1     O1        0.270243290803205    0.749557424037268    0.297559659392914  0.0000
  O1     O1        0.730337880881570    0.243889633149486    0.721311493328905  0.0000
  O2     O2        0.754677181004596    0.748385514474276    0.737552053905365  0.0000
  O1     O1        0.117549507438775    0.328732437379502    0.135818990101160  0.0000
  O1     O1        0.392407660051391    0.628230541912686    0.148717167141954  0.0000
  O1     O1        0.861947633092301    0.233743505786495    0.877521484668057  0.0000
  O3     O3        0.641440277494503    0.718084866553790    0.900523078425766  0.0000
  O3     O3        0.870787190102395    0.636760394174038    0.883676537956361  0.0000
  O1     O1        0.612012348012414    0.332970379864259    0.897654333357624  0.0000
  O1     O1        0.142128121709930    0.732918979384165    0.133779037232851  0.0000
  O3     O3        0.360424924816484    0.225392574334912    0.140733587891109  0.0000
  O1     O1        0.663952007931949    0.509337296879997    0.121587150835797  0.0000
  O1     O1        0.844485328474041    0.435439812822762    0.105493154736878  0.0000
  O3     O3        0.349509947554392    0.429723564296614    0.933198745405489  0.0000
  O1     O1        0.158325735140560    0.520744250700451    0.914184141977743  0.0000
  O1     O1        0.735194698253543    0.202391021401397    0.039763338860018  0.0000
  O1     O1        0.768551615821880    0.757462248240149    0.071987040849206  0.0000
  O3     O3        0.240273468121803    0.217569856205404    0.985840706557067  0.0000
  O1     O1        0.272888081842444    0.742094827212591    0.982466130362116  0.0000
