data_c00825.vasp
_audit_creation_method             Generated by GULP
_audit_author_name                 Salvador R. G. Balestra
_symmetry_space_group_name_H-M     'P 1             '
_symmetry_Int_Tables_number        1

loop_
_symmetry_equiv_pos_site_id
_symmetry_equiv_pos_as_xyz
_cell_length_a                       17.5722
_cell_length_b                        7.8387
_cell_length_c                       10.1074
_cell_angle_alpha                   90.2593
_cell_angle_beta                    89.8245
_cell_angle_gamma                   91.9939

loop_
_atom_site_label
_atom_site_type_symbol
_atom_site_fract_x
_atom_site_fract_y
_atom_site_fract_z
_atom_site_charge
  Ge     Ge        0.052090000000021    0.000000000000000    0.372269999999958  0.0000
  Ge     Ge        0.445596279752804    0.064640428042704    0.383603270428503  0.0000
  Ge     Ge        0.945150222184237    0.056668348633603    0.623824202900658  0.0000
  Ge     Ge        0.545665844645471    0.999153489605760    0.123497147392539  0.0000
  Ge     Ge        0.949298622438673    0.067212277070422    0.118636975909775  0.0000
  Ge     Ge        0.445776474189932    0.059265977892448    0.860793893587459  0.0000
  Ge     Ge        0.055695718035959    0.006665756995183    0.868567583064058  0.0000
  Ge     Ge        0.171036086082450    0.297598113804848    0.300992971790541  0.0000
  Ge     Ge        0.325460016054799    0.777662378033836    0.298489903475072  0.0000
  Ge     Ge        0.853890280579394    0.376928043978529    0.735160927893870  0.0000
  Ge     Ge        0.646078930643021    0.699761606762935    0.734412294530744  0.0000
  Ge     Ge        0.669631833674173    0.300915917776913    0.729692853565095  0.0000
  Ge     Ge        0.352046953398419    0.376788669555015    0.305960855258834  0.0000
  Ge     Ge        0.670164870248134    0.288528948463104    0.049831316904875  0.0000
  Ge     Ge        0.823175085632089    0.776366985402438    0.053540360890492  0.0000
  Ge     Ge        0.351392342983485    0.370814643608435    0.983950565110863  0.0000
  Ge     Ge        0.143447949794629    0.688134584802196    0.988270248742299  0.0000
  Ge     Ge        0.325128684169580    0.772748707615048    0.977429556835363  0.0000
  Ge     Ge        0.644204513310772    0.689988525845130    0.057074334610232  0.0000
  Ge     Ge        0.850674545791615    0.375546460514522    0.054712431987465  0.0000
  Si     Si        0.555445918677317    0.009141371424581    0.617710946483486  0.0000
  Si     Si        0.826300736109959    0.769213433291569    0.738716740794703  0.0000
  Si     Si        0.147705448801247    0.693143207885361    0.299765118615780  0.0000
  Si     Si        0.171692185676616    0.292888987906321    0.987971658534861  0.0000
  O1     O1        0.119485977874608    0.161545408533763    0.400072952574136  0.0000
  O1     O1        0.369540386251285    0.922250162419272    0.401790811606914  0.0000
  O1     O1        0.916943064404736    0.262655317022838    0.643561035920196  0.0000
  O3     O3        0.581922308422789    0.820285028550686    0.650088044686431  0.0000
  O3     O3        0.869446913002937    0.918148388290926    0.658269971194215  0.0000
  O3     O3        0.625390888011821    0.142292384309530    0.635897776616054  0.0000
  O3     O3        0.091498232329974    0.801401815347485    0.390390112913411  0.0000
  O1     O1        0.414514751401772    0.267297954963895    0.402262900826162  0.0000
  O1     O1        0.971017360934384    0.024529561132296    0.461001807046501  0.0000
  O3     O3        0.527145400388563    0.015560080276479    0.466233788823603  0.0000
  O1     O1        0.026897885840134    0.021431924156025    0.208351048635887  0.0000
  O1     O1        0.469613735598417    0.043406433020370    0.217757659085988  0.0000
  O1     O1        0.028118075153153    0.016889112456351    0.706012527464691  0.0000
  O3     O3        0.480366884724063    0.058711637063423    0.699698235237312  0.0000
  O1     O1        0.620194844755912    0.145676502601251    0.144860133542381  0.0000
  O1     O1        0.875530644818102    0.919362199013342    0.143671942253169  0.0000
  O1     O1        0.415176155912040    0.261400084899841    0.892688673984700  0.0000
  O1     O1        0.078513228751762    0.798700775727268    0.901618268059629  0.0000
  O1     O1        0.368798220411295    0.920427822801341    0.876822280003474  0.0000
  O3     O3        0.132009466961646    0.147519433588089    0.898013419865251  0.0000
  O1     O1        0.578697643441846    0.797300780292522    0.147288023972902  0.0000
  O1     O1        0.913650961176456    0.265476081402466    0.147811457702825  0.0000
  O1     O1        0.519196258071929    0.004836373714813    0.959007213011626  0.0000
  O1     O1        0.976272621070710    0.060631500666486    0.954504217244886  0.0000
  O3     O3        0.159304586135027    0.506415906590720    0.356907144429149  0.0000
  O1     O1        0.343145379701043    0.579417939407455    0.362380298884939  0.0000
  O3     O3        0.844345981801252    0.584229209555690    0.677746926586964  0.0000
  O1     O1        0.650238461024146    0.498941326891057    0.667283877457083  0.0000
  O1     O1        0.266067753303377    0.262539427730650    0.309253499988761  0.0000
  O3     O3        0.227978819468350    0.799912628452553    0.291227726532391  0.0000
  O1     O1        0.765713935563931    0.275320343438678    0.727321415267418  0.0000
  O3     O3        0.736084788351548    0.797508684841643    0.733928085243318  0.0000
  O3     O3        0.140627316962678    0.278334325271681    0.137965031239827  0.0000
  O1     O1        0.357847196911486    0.793492370268083    0.137750299881923  0.0000
  O1     O1        0.884853922052489    0.387194666165054    0.894840868483537  0.0000
  O1     O1        0.616065983910925    0.674537876759022    0.893874962570142  0.0000
  O3     O3        0.854193325899116    0.775273718552498    0.890031635637996  0.0000
  O1     O1        0.636858759842765    0.282630970946721    0.889191782572734  0.0000
  O3     O3        0.114333277251506    0.676312242494790    0.151861269231421  0.0000
  O1     O1        0.382910748129755    0.385357021322108    0.144365239593293  0.0000
  O1     O1        0.657110800689048    0.490342791677420    0.115235008633524  0.0000
  O1     O1        0.836420182197186    0.573989230550028    0.115707875457512  0.0000
  O1     O1        0.344172813523582    0.571068426812240    0.920930122946267  0.0000
  O3     O3        0.153204192957664    0.480289116594576    0.932534622846659  0.0000
  O1     O1        0.765872246805734    0.256770967440517    0.047498858189140  0.0000
  O1     O1        0.728157428084758    0.812160429179411    0.059369903125037  0.0000
  O3     O3        0.262028178694379    0.268629335040845    0.988020230160094  0.0000
  O1     O1        0.228887335329391    0.797715866192247    0.974634983603591  0.0000
