data_c00883.vasp
_audit_creation_method             Generated by GULP
_audit_author_name                 Salvador R. G. Balestra
_symmetry_space_group_name_H-M     'P 1             '
_symmetry_Int_Tables_number        1

loop_
_symmetry_equiv_pos_site_id
_symmetry_equiv_pos_as_xyz
_cell_length_a                       17.5621
_cell_length_b                        7.8369
_cell_length_c                       10.1873
_cell_angle_alpha                   89.9421
_cell_angle_beta                    90.5215
_cell_angle_gamma                   88.1718

loop_
_atom_site_label
_atom_site_type_symbol
_atom_site_fract_x
_atom_site_fract_y
_atom_site_fract_z
_atom_site_charge
  Ge     Ge        0.052090000000021    0.000000000000000    0.372269999999958  0.0000
  Ge     Ge        0.446351525205805    0.952261909550293    0.365581246533303  0.0000
  Ge     Ge        0.941154532698570    0.949880391220393    0.618259550836563  0.0000
  Ge     Ge        0.557387562879406    0.992348754148379    0.121196965908646  0.0000
  Ge     Ge        0.945023407329913    0.930874613840235    0.121870798137291  0.0000
  Ge     Ge        0.450601881213035    0.933559867013665    0.867027926691156  0.0000
  Ge     Ge        0.047830072181732    0.998992746635835    0.870402558420994  0.0000
  Ge     Ge        0.147939080950356    0.311440343787284    0.256895316221965  0.0000
  Ge     Ge        0.357103598004617    0.629913953409727    0.251227908744699  0.0000
  Ge     Ge        0.662347355882813    0.708344928525851    0.694070296106444  0.0000
  Ge     Ge        0.846060681028818    0.632798936067942    0.689340596681287  0.0000
  Ge     Ge        0.644484110108561    0.306330461282731    0.684531920362308  0.0000
  Ge     Ge        0.174198832751535    0.710526597767820    0.257507197495550  0.0000
  Ge     Ge        0.854840633970913    0.617735758940116    0.004625783071252  0.0000
  Ge     Ge        0.325425354310830    0.221870691481682    0.942854200642720  0.0000
  Ge     Ge        0.172907644587352    0.711698275744708    0.939422304821774  0.0000
  Ge     Ge        0.353378578066182    0.624310890935456    0.934493798590450  0.0000
  Ge     Ge        0.146212251036115    0.310113571071515    0.937150652061598  0.0000
  Ge     Ge        0.670912565548932    0.694248344747653    0.009294800073794  0.0000
  Ge     Ge        0.823522524859080    0.218348356301299    0.996096215402335  0.0000
  Si     Si        0.548068074152682    0.998320036990161    0.616081350206908  0.0000
  Si     Si        0.822195392713951    0.238288941330711    0.682821011976028  0.0000
  Si     Si        0.327424964360705    0.235491516551999    0.254211698197240  0.0000
  Si     Si        0.646350531635978    0.299582139926581    0.997481438205981  0.0000
  O1     O1        0.083037544027452    0.201902170787061    0.344656231858285  0.0000
  O1     O1        0.420876462548969    0.745358694080186    0.340375531754318  0.0000
  O3     O3        0.870028844767853    0.106768084330226    0.593736435990664  0.0000
  O3     O3        0.614608920882584    0.855267578765594    0.593919831947741  0.0000
  O1     O1        0.903212448797164    0.753263470416094    0.592406290743708  0.0000
  O3     O3        0.581387763859864    0.185442338111300    0.596792772183659  0.0000
  O1     O1        0.128025187598146    0.861515526704089    0.350702377862848  0.0000
  O3     O3        0.369289570513248    0.091258029644155    0.342221181734837  0.0000
  O1     O1        0.021345041164031    0.987115578480396    0.532413358054768  0.0000
  O3     O3        0.473897458256589    0.969254976129461    0.529744999928843  0.0000
  O1     O1        0.971891813428084    0.952039529951158    0.283308513279945  0.0000
  O1     O1        0.524995996394270    0.005682277716781    0.279237039392520  0.0000
  O1     O1        0.968974477416584    0.955766999320137    0.781492670991859  0.0000
  O3     O3        0.525483133990962    0.980837950587832    0.769173155985482  0.0000
  O3     O3        0.585227551005355    0.194095988676855    0.075512920427494  0.0000
  O1     O1        0.920629937787246    0.722512121417570    0.096211910315939  0.0000
  O1     O1        0.376085526745945    0.080401213326491    0.850206556590192  0.0000
  O1     O1        0.121634667976885    0.853381784061241    0.844379314837161  0.0000
  O1     O1        0.415498893201899    0.734051549214547    0.839940131230656  0.0000
  O1     O1        0.080809340250257    0.201106325214871    0.847322922793003  0.0000
  O1     O1        0.628921187912994    0.838462316575825    0.113520056647649  0.0000
  O1     O1        0.865411889945905    0.055792862683136    0.082335620371257  0.0000
  O1     O1        0.480902719668079    0.936628071042671    0.027727993839270  0.0000
  O1     O1        0.022034462825054    0.989329258144614    0.033852844701384  0.0000
  O1     O1        0.156149086522442    0.511783468193325    0.320311190487774  0.0000
  O3     O3        0.345218681736746    0.423514153108150    0.309015896073054  0.0000
  O3     O3        0.833930691444200    0.429494922913782    0.629001738998088  0.0000
  O1     O1        0.645848310937129    0.509757913052370    0.627296766389648  0.0000
  O3     O3        0.237157214568571    0.208117756339539    0.256025459320578  0.0000
  O1     O1        0.270446644826933    0.737695366118124    0.257752289693755  0.0000
  O3     O3        0.732841308870361    0.201976072057901    0.676850479223523  0.0000
  O1     O1        0.758433405939238    0.737002891050519    0.696757511928114  0.0000
  O1     O1        0.117066544732329    0.329187702846782    0.097496795076012  0.0000
  O1     O1        0.387908855160216    0.615029884094070    0.093351529461683  0.0000
  O3     O3        0.851555663210583    0.222388517649731    0.833171791814588  0.0000
  O1     O1        0.632516609757279    0.723446431195566    0.854577881960602  0.0000
  O1     O1        0.884504799019377    0.617623839259929    0.844045843580854  0.0000
  O3     O3        0.619003138551643    0.326228310233989    0.847529192771484  0.0000
  O1     O1        0.140602644974411    0.723938320452324    0.098666561990840  0.0000
  O3     O3        0.357103760988832    0.218295767908517    0.105253930170337  0.0000
  O3     O3        0.656819511944803    0.485045720571411    0.060464201730394  0.0000
  O1     O1        0.847869681146061    0.411976710877339    0.060297375022609  0.0000
  O1     O1        0.338733327502875    0.423800031236846    0.879323112776383  0.0000
  O1     O1        0.159427122130156    0.509161444327094    0.877033091341853  0.0000
  O3     O3        0.726294838876309    0.192709693310241    0.000181284869561  0.0000
  O1     O1        0.766985325742848    0.721208643597264    0.008419069624592  0.0000
  O1     O1        0.230001062901218    0.187725504890721    0.937658154600475  0.0000
  O1     O1        0.268646074388275    0.743287215737802    0.939625880204415  0.0000
