data_c00841.vasp
_audit_creation_method             Generated by GULP
_audit_author_name                 Salvador R. G. Balestra
_symmetry_space_group_name_H-M     'P 1             '
_symmetry_Int_Tables_number        1

loop_
_symmetry_equiv_pos_site_id
_symmetry_equiv_pos_as_xyz
_cell_length_a                       17.8881
_cell_length_b                        7.8228
_cell_length_c                       10.2156
_cell_angle_alpha                   90.8957
_cell_angle_beta                    89.9352
_cell_angle_gamma                   90.4318

loop_
_atom_site_label
_atom_site_type_symbol
_atom_site_fract_x
_atom_site_fract_y
_atom_site_fract_z
_atom_site_charge
  Ge     Ge        0.052090000000021    0.000000000000000    0.372269999999958  0.0000
  Ge     Ge        0.445470352116899    0.042262042360117    0.344858348982978  0.0000
  Ge     Ge        0.940543417511599    0.994509875329151    0.620648848957369  0.0000
  Ge     Ge        0.546832090667862    0.028188322268075    0.083502326503214  0.0000
  Ge     Ge        0.943515753804064    0.007657167427422    0.122865890074250  0.0000
  Ge     Ge        0.444937572123776    0.032124472573146    0.825259716764392  0.0000
  Ge     Ge        0.047695728385845    0.003257826438505    0.873292710980710  0.0000
  Ge     Ge        0.168039749594276    0.293812096917983    0.258477018200127  0.0000
  Ge     Ge        0.326228027694332    0.759216237983455    0.262386939446193  0.0000
  Ge     Ge        0.825873280010132    0.288770756740470    0.688691686156936  0.0000
  Ge     Ge        0.661561428126039    0.726972025242663    0.691752808326864  0.0000
  Ge     Ge        0.346643617506608    0.351888360617101    0.264835358828486  0.0000
  Ge     Ge        0.648145976058703    0.342422464510461    0.008886870591311  0.0000
  Ge     Ge        0.845124392010016    0.694782665811441    0.998789520954266  0.0000
  Ge     Ge        0.349164107636647    0.345318711437504    0.943952808318001  0.0000
  Ge     Ge        0.147865081615500    0.689247902316299    0.945297476722248  0.0000
  Ge     Ge        0.325125859464505    0.756738671370063    0.944164092120489  0.0000
  Ge     Ge        0.170720794479100    0.281494360786900    0.939797571013299  0.0000
  Ge     Ge        0.668787342857607    0.751177198137204    0.010650601559835  0.0000
  Ge     Ge        0.824907096437376    0.284184935999021    0.005411355396691  0.0000
  Si     Si        0.553264282868739    0.019440051092484    0.583754227290253  0.0000
  Si     Si        0.837868878400772    0.685337963627455    0.683569331623500  0.0000
  Si     Si        0.648713480333387    0.328832975846402    0.697346386243186  0.0000
  Si     Si        0.151328223270584    0.696129936254026    0.256614111152129  0.0000
  O1     O1        0.113954799435257    0.166322558257847    0.355399406148250  0.0000
  O1     O1        0.373684639962557    0.896915400898151    0.364425543797774  0.0000
  O1     O1        0.876358646801837    0.152915014378213    0.591466207650104  0.0000
  O3     O3        0.609304206374694    0.862304727245251    0.597789279928441  0.0000
  O3     O3        0.894442908313052    0.799862898799064    0.600505556688246  0.0000
  O2     O2        0.593177732359636    0.199272430381766    0.620728396202856  0.0000
  O3     O3        0.093304102383655    0.804383096848764    0.342295097138151  0.0000
  O1     O1        0.408536808898242    0.242208152502408    0.359915029140684  0.0000
  O1     O1        0.020886124800150    0.002706895073129    0.531815421117737  0.0000
  O3     O3        0.526231442401004    0.020503812979412    0.434213470263208  0.0000
  O1     O1        0.971403077419623    0.017356385034566    0.283293174463546  0.0000
  O1     O1        0.473232705763383    0.004233316385807    0.185118693486346  0.0000
  O1     O1        0.969855966671512    0.022363376864583    0.780242666907152  0.0000
  O3     O3        0.477201199435227    0.002656094589965    0.666414166258434  0.0000
  O1     O1        0.582291261585388    0.233360965056731    0.094964788630852  0.0000
  O1     O1        0.914496705680346    0.804385723557197    0.076821176361103  0.0000
  O1     O1        0.414710728305194    0.237490165900428    0.853743554843521  0.0000
  O1     O1        0.081944472656092    0.798468149637495    0.861111415013059  0.0000
  O1     O1        0.370405683296395    0.895558700495643    0.844448259011364  0.0000
  O1     O1        0.119889064354880    0.144522311698805    0.842742205645297  0.0000
  O1     O1        0.618639538846408    0.886560087171191    0.107646155209064  0.0000
  O1     O1        0.872256266528152    0.150181259355051    0.104921069144942  0.0000
  O1     O1        0.516851992491066    0.983444795904331    0.926404254578104  0.0000
  O1     O1        0.020683876645664    0.053879321323683    0.031355341508124  0.0000
  O3     O3        0.160720277983068    0.506514179993138    0.311105621042303  0.0000
  O1     O1        0.340461299640128    0.557180803252807    0.320616654081476  0.0000
  O3     O3        0.835923414213848    0.493180171049110    0.627444853473156  0.0000
  O3     O3        0.648301951963305    0.516992964777225    0.636434481807873  0.0000
  O1     O1        0.261359325511312    0.247504580766022    0.269115314246544  0.0000
  O3     O3        0.230726162059952    0.795829480900003    0.259170557667218  0.0000
  O3     O3        0.730686692095165    0.246607711383200    0.691691519714144  0.0000
  O3     O3        0.756164194258528    0.771081131745138    0.678909065377188  0.0000
  O1     O1        0.140141621174817    0.270241592583282    0.099667300583351  0.0000
  O1     O1        0.356611962749704    0.773601573927063    0.103050924933784  0.0000
  O1     O1        0.856566342430148    0.267586010598332    0.846596618558207  0.0000
  O1     O1        0.636631852178653    0.753709152843978    0.851182328641477  0.0000
  O3     O3        0.865305415660549    0.676270946192016    0.833304262089545  0.0000
  O3     O3        0.620498391515051    0.348481037271288    0.845558935340372  0.0000
  O3     O3        0.120994364596484    0.681960670688474    0.108827393390317  0.0000
  O1     O1        0.377297796009695    0.350602712492467    0.104909717795428  0.0000
  O1     O1        0.658274218786100    0.545663005073604    0.067504692581712  0.0000
  O1     O1        0.836658287438401    0.492961235864530    0.058646984868180  0.0000
  O1     O1        0.338761618449704    0.549169889142362    0.889784721635656  0.0000
  O1     O1        0.157495000409874    0.486847892814119    0.885060206233485  0.0000
  O1     O1        0.731422943093514    0.235235487981837    0.012175571647938  0.0000
  O1     O1        0.762030611226200    0.802392088097670    0.014704222514830  0.0000
  O1     O1        0.264415735477741    0.238975429440460    0.935425880709079  0.0000
  O1     O1        0.231278769862316    0.798680233413381    0.939443071888449  0.0000
