data_c00897.vasp
_audit_creation_method             Generated by GULP
_audit_author_name                 Salvador R. G. Balestra
_symmetry_space_group_name_H-M     'P 1             '
_symmetry_Int_Tables_number        1

loop_
_symmetry_equiv_pos_site_id
_symmetry_equiv_pos_as_xyz
_cell_length_a                       17.5861
_cell_length_b                        7.7975
_cell_length_c                       10.1344
_cell_angle_alpha                   90.1867
_cell_angle_beta                    89.8675
_cell_angle_gamma                   88.5688

loop_
_atom_site_label
_atom_site_type_symbol
_atom_site_fract_x
_atom_site_fract_y
_atom_site_fract_z
_atom_site_charge
  Ge     Ge        0.052090000000021    0.000000000000000    0.372269999999958  0.0000
  Ge     Ge        0.450270816068528    0.940406296744818    0.379323343051907  0.0000
  Ge     Ge        0.942827840695116    0.955770348805316    0.618841000131018  0.0000
  Ge     Ge        0.549597286236400    0.008258300610913    0.119413428194386  0.0000
  Ge     Ge        0.956026488766419    0.942003291377982    0.108990820188050  0.0000
  Ge     Ge        0.450793549440592    0.940440137398369    0.857143740927405  0.0000
  Ge     Ge        0.061724147055785    0.997910860244199    0.854341162728629  0.0000
  Ge     Ge        0.149618232751383    0.309660657687163    0.293001282346658  0.0000
  Ge     Ge        0.355070290265177    0.627883548351257    0.296037287038609  0.0000
  Ge     Ge        0.673424685252794    0.712526067990699    0.728699091488141  0.0000
  Ge     Ge        0.649404849633746    0.313329015068310    0.727499461107273  0.0000
  Ge     Ge        0.175505524639162    0.717918565218159    0.290194703432714  0.0000
  Ge     Ge        0.328237377268980    0.221445939911607    0.295494258517157  0.0000
  Ge     Ge        0.650411565427517    0.315817624267422    0.049965535820222  0.0000
  Ge     Ge        0.853550090162483    0.635519833865682    0.047715736199750  0.0000
  Ge     Ge        0.329329015448360    0.221561515543459    0.975426770825427  0.0000
  Ge     Ge        0.178116945339179    0.704829889207487    0.972057255637837  0.0000
  Ge     Ge        0.360217808005110    0.624244005124652    0.975819854030290  0.0000
  Ge     Ge        0.674943508031805    0.720613421856808    0.048576163277994  0.0000
  Ge     Ge        0.828527471006026    0.226994473560756    0.039893815589013  0.0000
  Si     Si        0.559377292984495    0.000166157023736    0.614265299713273  0.0000
  Si     Si        0.829046747525615    0.248391676074491    0.728498157739850  0.0000
  Si     Si        0.852697592406793    0.642033799375542    0.736037857420526  0.0000
  Si     Si        0.151764637846807    0.305675316824709    0.980149996965564  0.0000
  O1     O1        0.084860931924011    0.204762282910476    0.387766692310309  0.0000
  O1     O1        0.417300711894529    0.737291602030662    0.394902352168848  0.0000
  O3     O3        0.873591817480932    0.115432732788275    0.634569164867675  0.0000
  O3     O3        0.631483853162067    0.875201150884438    0.638070937544131  0.0000
  O3     O3        0.910434077582717    0.752072744011270    0.650152951736684  0.0000
  O3     O3        0.583929068450141    0.193156524731649    0.643657797562148  0.0000
  O1     O1        0.125799161174631    0.853014152332745    0.393702332996513  0.0000
  O1     O1        0.377124793459013    0.087794049093471    0.400753218016235  0.0000
  O1     O1        0.970907104603647    0.958051866023820    0.455461760822967  0.0000
  O3     O3        0.532495397705987    0.984388173845781    0.463137115229705  0.0000
  O1     O1        0.031087065902481    0.982122370263123    0.205378759618533  0.0000
  O1     O1        0.473882728657399    0.963528263252446    0.213990584034758  0.0000
  O1     O1        0.027053768714892    0.999988218024767    0.695481824361048  0.0000
  O3     O3        0.484704633449557    0.947680288952927    0.696194953218309  0.0000
  O1     O1        0.585223203251819    0.209943636786394    0.142060560186017  0.0000
  O1     O1        0.920371475479405    0.740606120051336    0.135615494214804  0.0000
  O1     O1        0.370077731312969    0.067611588932208    0.876433631905662  0.0000
  O1     O1        0.133175955679144    0.844854042572688    0.867117203371756  0.0000
  O1     O1        0.427209112890747    0.731983119349164    0.888487193219549  0.0000
  O3     O3        0.092660030297450    0.201335261354488    0.893538370650385  0.0000
  O1     O1        0.622529387828219    0.859686446981373    0.142757725257111  0.0000
  O1     O1        0.881711604382257    0.088968642509885    0.131372457333956  0.0000
  O1     O1        0.522204173531696    0.007811204357230    0.955640080093387  0.0000
  O1     O1        0.983989066026151    0.949609069801891    0.946450262738597  0.0000
  O1     O1        0.162965416335281    0.511934848994938    0.348444171815170  0.0000
  O1     O1        0.339693192903128    0.428015541447272    0.354284983036972  0.0000
  O2     O2        0.843132292249558    0.445922115921926    0.683465040844828  0.0000
  O1     O1        0.651910466018527    0.516594486430755    0.662918244355276  0.0000
  O1     O1        0.232551121356533    0.186350918521189    0.296504033213330  0.0000
  O1     O1        0.271628521820496    0.750128019554793    0.289993438200542  0.0000
  O3     O3        0.739342910781175    0.216982848548851    0.721660503990812  0.0000
  O3     O3        0.770719417455916    0.737625862476065    0.730056052227651  0.0000
  O3     O3        0.120944659592367    0.326040087394809    0.129027097893851  0.0000
  O1     O1        0.389226305559438    0.609377115905380    0.137387985488965  0.0000
  O3     O3        0.858979591632689    0.218116273524226    0.876233570130988  0.0000
  O1     O1        0.641846269882766    0.730147752468103    0.888079227225275  0.0000
  O3     O3        0.883156907295052    0.630924859191837    0.883539774835516  0.0000
  O1     O1        0.621638801312030    0.336238085714192    0.887828683140873  0.0000
  O1     O1        0.143816024605134    0.735274308826669    0.129309968749107  0.0000
  O1     O1        0.361496443108031    0.204411758274797    0.135316124693620  0.0000
  O1     O1        0.664448062122016    0.515760288641121    0.110259333885912  0.0000
  O1     O1        0.840775039850339    0.432586542212892    0.100430403367059  0.0000
  O1     O1        0.350982107725903    0.420511900818016    0.915159442099216  0.0000
  O3     O3        0.164080911407199    0.493888523762179    0.921497770672102  0.0000
  O1     O1        0.733302980101004    0.191198885499401    0.047078669305927  0.0000
  O1     O1        0.770265052491452    0.757385188136144    0.051778164477728  0.0000
  O3     O3        0.231726997784203    0.199379190961316    0.981233183111152  0.0000
  O1     O1        0.274225938032688    0.734727923998606    0.970474108259026  0.0000
