data_c00854.vasp
_audit_creation_method             Generated by GULP
_audit_author_name                 Salvador R. G. Balestra
_symmetry_space_group_name_H-M     'P 1             '
_symmetry_Int_Tables_number        1

loop_
_symmetry_equiv_pos_site_id
_symmetry_equiv_pos_as_xyz
_cell_length_a                       17.7085
_cell_length_b                        7.8003
_cell_length_c                       10.0861
_cell_angle_alpha                   89.8224
_cell_angle_beta                    90.1458
_cell_angle_gamma                   90.8165

loop_
_atom_site_label
_atom_site_type_symbol
_atom_site_fract_x
_atom_site_fract_y
_atom_site_fract_z
_atom_site_charge
  Ge     Ge        0.052090000000021    0.000000000000000    0.372269999999958  0.0000
  Ge     Ge        0.442406135403294    0.051424803053975    0.343210081894863  0.0000
  Ge     Ge        0.944450302828407    0.042265341492724    0.620789311381826  0.0000
  Ge     Ge        0.542167601262444    0.986963871012028    0.082297845054147  0.0000
  Ge     Ge        0.939143639815887    0.047984478544592    0.132365126232044  0.0000
  Ge     Ge        0.441533749398809    0.048840411831928    0.819621631674303  0.0000
  Ge     Ge        0.046866126997942    0.990062085594085    0.882380331621023  0.0000
  Ge     Ge        0.167583087364142    0.296069483180669    0.262459515638214  0.0000
  Ge     Ge        0.319417537923284    0.774172219159172    0.261078252901049  0.0000
  Ge     Ge        0.844300164980725    0.360414658017698    0.680078592238183  0.0000
  Ge     Ge        0.819763833103383    0.761815741709037    0.689977490605727  0.0000
  Ge     Ge        0.662356508262334    0.296120578141015    0.685974005298618  0.0000
  Ge     Ge        0.348593577007750    0.369687751906048    0.265406517622490  0.0000
  Ge     Ge        0.665856442953252    0.271764807874080    0.006458636817876  0.0000
  Ge     Ge        0.818489734370017    0.763187657502111    0.011954494561492  0.0000
  Ge     Ge        0.348086974895420    0.360854019948799    0.943111861265487  0.0000
  Ge     Ge        0.319856535472669    0.767778918756583    0.935374591933908  0.0000
  Ge     Ge        0.167299497229049    0.284347557604342    0.944791546072648  0.0000
  Ge     Ge        0.642185054697384    0.677773207447516    0.013787256316936  0.0000
  Ge     Ge        0.843705915832120    0.355548847138822    0.004369784087837  0.0000
  Si     Si        0.551097932025940    0.001703602457350    0.579196689602360  0.0000
  Si     Si        0.642279073783002    0.693434505510218    0.698162862461837  0.0000
  Si     Si        0.145858257688701    0.692662023991718    0.252546595911696  0.0000
  Si     Si        0.147149208936563    0.680699936947257    0.938349282438596  0.0000
  O1     O1        0.120961602872866    0.154873516573196    0.364600013170076  0.0000
  O1     O1        0.365933750456411    0.915425104236969    0.361723002552885  0.0000
  O1     O1        0.910304215670836    0.245160554320756    0.595722779147033  0.0000
  O2     O2        0.583140245775800    0.817091139824051    0.623044569367059  0.0000
  O1     O1        0.867354601530750    0.908277394139440    0.595899300112289  0.0000
  O3     O3        0.613011362152154    0.152157164612085    0.587845593666922  0.0000
  O3     O3        0.079550232997182    0.799254994855498    0.317878255739474  0.0000
  O1     O1        0.411209561544928    0.256408649671779    0.361598205711116  0.0000
  O1     O1        0.023624969579034    0.989517936750735    0.535812984394759  0.0000
  O3     O3        0.522878100821726    0.993960741813711    0.427302887291070  0.0000
  O1     O1        0.969305538480102    0.051895685674223    0.294333798612399  0.0000
  O1     O1        0.466880697735930    0.029842628192001    0.177644986023579  0.0000
  O1     O1        0.969820908325744    0.021413648472471    0.786224344424525  0.0000
  O3     O3        0.474667125129249    0.045063176539463    0.657841891793773  0.0000
  O1     O1        0.615348005268970    0.132703615353851    0.102746725768735  0.0000
  O1     O1        0.866110696197626    0.903972472671136    0.111828681508615  0.0000
  O1     O1        0.413291239771311    0.254172052106686    0.852046251791629  0.0000
  O3     O3        0.082330210678546    0.783299473650866    0.864651797389433  0.0000
  O1     O1        0.364251624270031    0.914743439523408    0.836795616834574  0.0000
  O1     O1        0.115762491426077    0.143345770121128    0.851014973234040  0.0000
  O1     O1        0.575806210310344    0.782406435111292    0.103418296483017  0.0000
  O1     O1        0.911081526030379    0.251490906148626    0.092750863599457  0.0000
  O1     O1        0.514550327971529    0.990669069507201    0.918115276654426  0.0000
  O1     O1        0.018027725962066    0.995870495120066    0.044516374240767  0.0000
  O3     O3        0.153102034730746    0.505536625319797    0.317149149848948  0.0000
  O1     O1        0.338725514217995    0.572901857721748    0.321866019987898  0.0000
  O1     O1        0.836696236321155    0.564525608390818    0.621299711760315  0.0000
  O3     O3        0.647855062378267    0.506471491435175    0.631725302041641  0.0000
  O1     O1        0.262701456533882    0.261905562752588    0.265362905791294  0.0000
  O3     O3        0.222639502671171    0.803832499819966    0.269617532767457  0.0000
  O1     O1        0.757008713415887    0.258387855744955    0.675020687963775  0.0000
  O3     O3        0.722938970874915    0.790617785420590    0.694412477736965  0.0000
  O1     O1        0.134673016467080    0.261770396732942    0.104687062346099  0.0000
  O1     O1        0.347574486348287    0.792156778319445    0.098217370701093  0.0000
  O1     O1        0.872128011127245    0.376743984644506    0.842971687261949  0.0000
  O3     O3        0.616054145226279    0.659263926494220    0.847374157887174  0.0000
  O1     O1        0.850688222887367    0.777555808980460    0.851679921194609  0.0000
  O1     O1        0.632452094164185    0.265007923408534    0.845363000051873  0.0000
  O2     O2        0.132138389052051    0.654703625610807    0.096461445250493  0.0000
  O1     O1        0.379341060345756    0.377535094173820    0.103976159023752  0.0000
  O1     O1        0.654389670834504    0.475302445192391    0.070709511645096  0.0000
  O1     O1        0.829468580450065    0.555371193905062    0.067722744303226  0.0000
  O1     O1        0.338694479738716    0.564170867541865    0.881854627175913  0.0000
  O3     O3        0.154964970423807    0.491187124453788    0.881602857221639  0.0000
  O1     O1        0.760911243241983    0.234816941569365    0.005622690858739  0.0000
  O1     O1        0.723458328511930    0.801195232066632    0.017310621621785  0.0000
  O1     O1        0.262604090611074    0.250705089320596    0.941819268479761  0.0000
  O3     O3        0.223207346264790    0.794717720106323    0.924809447742342  0.0000
