data_c00820.vasp
_audit_creation_method             Generated by GULP
_audit_author_name                 Salvador R. G. Balestra
_symmetry_space_group_name_H-M     'P 1             '
_symmetry_Int_Tables_number        1

loop_
_symmetry_equiv_pos_site_id
_symmetry_equiv_pos_as_xyz
_cell_length_a                       17.2809
_cell_length_b                        7.7582
_cell_length_c                       10.5549
_cell_angle_alpha                   86.5078
_cell_angle_beta                    90.5238
_cell_angle_gamma                   90.0438

loop_
_atom_site_label
_atom_site_type_symbol
_atom_site_fract_x
_atom_site_fract_y
_atom_site_fract_z
_atom_site_charge
  Ge     Ge        0.052090000000021    0.000000000000000    0.372269999999958  0.0000
  Ge     Ge        0.460936210030831    0.051327660110936    0.386776077599786  0.0000
  Ge     Ge        0.957439968803327    0.064920291154799    0.629820446890604  0.0000
  Ge     Ge        0.574888776603499    0.028032012356367    0.141199505182414  0.0000
  Ge     Ge        0.968125829704261    0.001003125896865    0.093270947164039  0.0000
  Ge     Ge        0.460036322524415    0.065860586814291    0.907678338039430  0.0000
  Ge     Ge        0.081349977077165    0.034317173593704    0.851728947449072  0.0000
  Ge     Ge        0.184378295243672    0.273465840733037    0.291814911312459  0.0000
  Ge     Ge        0.340268247994143    0.769388364380478    0.302923350842358  0.0000
  Ge     Ge        0.841732449762897    0.366928198765506    0.699028834654606  0.0000
  Ge     Ge        0.681175284026760    0.830948410008634    0.755073087677063  0.0000
  Ge     Ge        0.655230201534204    0.416826293871731    0.721347898473591  0.0000
  Ge     Ge        0.152791638883268    0.700995569698073    0.275846288596522  0.0000
  Ge     Ge        0.659195785605952    0.366583078361401    0.026619823548917  0.0000
  Ge     Ge        0.872987722430598    0.664701515789417    0.042741663854574  0.0000
  Ge     Ge        0.156000411286221    0.695390228050304    0.976830034309894  0.0000
  Ge     Ge        0.349518606711945    0.764656386664425    0.996742414031586  0.0000
  Ge     Ge        0.195755112244716    0.289103857622384    0.986106589807474  0.0000
  Ge     Ge        0.698620310569108    0.765924241747622    0.058205350945334  0.0000
  Ge     Ge        0.845118790657418    0.280154286235104    0.009515062440699  0.0000
  Si     Si        0.554267247795297    0.119635334781109    0.648306535429193  0.0000
  Si     Si        0.853542182788607    0.751163268106011    0.739626911013311  0.0000
  Si     Si        0.355299974954122    0.371944278965176    0.308145922854369  0.0000
  Si     Si        0.369184118080031    0.381781293173426    0.008376822712549  0.0000
  O1     O1        0.127705360878411    0.142805635925891    0.388783800918579  0.0000
  O1     O1        0.384527329476452    0.910638033529943    0.399195297064652  0.0000
  O1     O1        0.896621283523322    0.237348597172476    0.607766099659565  0.0000
  O3     O3        0.626414783023745    0.994343495624643    0.684130401266267  0.0000
  O3     O3        0.920189994281556    0.893091991398995    0.725109703586451  0.0000
  O3     O3        0.588223900092574    0.312420196704144    0.628230484912294  0.0000
  O1     O1        0.087125493291665    0.793149040301429    0.371505148113864  0.0000
  O3     O3        0.429826436391414    0.259494052507728    0.343819907079935  0.0000
  O1     O1        0.980579036792770    0.004158692617686    0.481856435253119  0.0000
  O3     O3        0.513630000563718    0.053312385444378    0.524546593937795  0.0000
  O1     O1        0.011189864546541    0.061971342360887    0.227424271131944  0.0000
  O1     O1        0.519513193200057    0.981932027705751    0.271547315162671  0.0000
  O1     O1        0.043770659935023    0.101203699280799    0.706488882313538  0.0000
  O3     O3        0.489130369196818    0.119352127916016    0.756393285654163  0.0000
  O1     O1        0.600256848578854    0.242488395094126    0.123875101153861  0.0000
  O1     O1        0.951792301178118    0.782314604283584    0.083320566972094  0.0000
  O3     O3        0.437429220672797    0.248473791531523    0.990617386456126  0.0000
  O1     O1        0.103953785127336    0.816288501103857    0.865010268114095  0.0000
  O1     O1        0.383103672571423    0.928544536455529    0.897290866068025  0.0000
  O1     O1        0.165354256729659    0.142352605541931    0.882421882495030  0.0000
  O1     O1        0.655918612779326    0.901202031854464    0.158514404440914  0.0000
  O1     O1        0.876270431479766    0.089390457885876    0.078965587857784  0.0000
  O1     O1        0.528857313562472    0.967893991241881    0.003651642459464  0.0000
  O1     O1        0.016700087743350    0.090093680587916    0.964976267897705  0.0000
  O1     O1        0.149955552875648    0.481838015566383    0.288099551705640  0.0000
  O3     O3        0.365396068737892    0.560678265947020    0.358316614271052  0.0000
  O3     O3        0.878124216040419    0.575951244279671    0.676053489224198  0.0000
  O1     O1        0.638969304990435    0.633768540975720    0.731264051596952  0.0000
  O3     O3        0.277515010875233    0.277227468556512    0.357440615390192  0.0000
  O1     O1        0.241762578613919    0.785490449700107    0.311887798593284  0.0000
  O1     O1        0.745546587411908    0.383704666315204    0.660197888579553  0.0000
  O3     O3        0.772759228574369    0.828722572276934    0.684406342852398  0.0000
  O1     O1        0.186475968391416    0.203623987060472    0.140333996375518  0.0000
  O1     O1        0.367633969434280    0.822734860265201    0.149165420456189  0.0000
  O1     O1        0.850831171947485    0.267969277596354    0.847631757162377  0.0000
  O1     O1        0.695013275377268    0.874877744250877    0.909869128511849  0.0000
  O3     O3        0.837327687500039    0.688561571867613    0.886053276268340  0.0000
  O1     O1        0.645248056054153    0.318320258235948    0.870837140382374  0.0000
  O1     O1        0.127642938596875    0.766091576222471    0.121217979928671  0.0000
  O2     O2        0.340707366208451    0.403227916764055    0.154843877358995  0.0000
  O1     O1        0.644514326684214    0.580857987284890    0.045301204807967  0.0000
  O1     O1        0.899478690140405    0.452968481665633    0.058681823995502  0.0000
  O3     O3        0.395884997770823    0.572396449997836    0.962457995160769  0.0000
  O1     O1        0.143026160388517    0.477519840847920    0.966261104288593  0.0000
  O1     O1        0.754825073445872    0.325190984791806    0.061688582889209  0.0000
  O1     O1        0.789623874711779    0.719098460204025    0.118232101155627  0.0000
  O3     O3        0.291800394205861    0.317851228740362    0.940785678650239  0.0000
  O1     O1        0.254204501896371    0.726625013775592    0.969446237698833  0.0000
