data_c00874.vasp
_audit_creation_method             Generated by GULP
_audit_author_name                 Salvador R. G. Balestra
_symmetry_space_group_name_H-M     'P 1             '
_symmetry_Int_Tables_number        1

loop_
_symmetry_equiv_pos_site_id
_symmetry_equiv_pos_as_xyz
_cell_length_a                       17.8405
_cell_length_b                        7.8710
_cell_length_c                       10.1772
_cell_angle_alpha                   89.4498
_cell_angle_beta                    90.2322
_cell_angle_gamma                   89.8102

loop_
_atom_site_label
_atom_site_type_symbol
_atom_site_fract_x
_atom_site_fract_y
_atom_site_fract_z
_atom_site_charge
  Ge     Ge        0.052090000000021    0.000000000000000    0.372269999999958  0.0000
  Ge     Ge        0.445004363803714    0.028963361237056    0.346274129509723  0.0000
  Ge     Ge        0.939545578760106    0.017514929243188    0.618363108744131  0.0000
  Ge     Ge        0.547477052796352    0.022937966864741    0.085932243154198  0.0000
  Ge     Ge        0.943368657972599    0.007834030428063    0.121682169929553  0.0000
  Ge     Ge        0.444910352214724    0.035337963480369    0.826768150799187  0.0000
  Ge     Ge        0.047992039822224    0.012583797669882    0.871112124981948  0.0000
  Ge     Ge        0.166536638717612    0.295919316408077    0.259734756411326  0.0000
  Ge     Ge        0.326859600705734    0.749202377456260    0.263614908738157  0.0000
  Ge     Ge        0.829195744462631    0.318407408992014    0.679121899911463  0.0000
  Ge     Ge        0.645326290408527    0.346801116242485    0.686764943790781  0.0000
  Ge     Ge        0.346399156698222    0.344329540331304    0.268039439130893  0.0000
  Ge     Ge        0.646809229328432    0.336534000421612    0.003525938513390  0.0000
  Ge     Ge        0.844857475755836    0.701368609354161    0.001010851070874  0.0000
  Ge     Ge        0.348325373742389    0.345898207858367    0.946629773706584  0.0000
  Ge     Ge        0.148450326966323    0.696265105664980    0.943831941570970  0.0000
  Ge     Ge        0.326453746478544    0.755418445916651    0.944468799314952  0.0000
  Ge     Ge        0.169114230816690    0.289991800294594    0.940642588777254  0.0000
  Ge     Ge        0.667322528511380    0.740558762406544    0.014553982547212  0.0000
  Ge     Ge        0.826732105623780    0.292286828722693    0.996290821683603  0.0000
  Si     Si        0.553353468788427    0.032968947549787    0.583997291687017  0.0000
  Si     Si        0.658806091756194    0.740390688413234    0.701155058516641  0.0000
  Si     Si        0.834809294185895    0.712685773512185    0.687520541267844  0.0000
  Si     Si        0.150796749950814    0.696183262993253    0.256197303064220  0.0000
  O1     O1        0.113681369880998    0.165381029982604    0.357008165430407  0.0000
  O1     O1        0.374049769351554    0.883522838188590    0.365437923670391  0.0000
  O1     O1        0.883504187997517    0.190415374492178    0.582853386980822  0.0000
  O2     O2        0.615345465832186    0.893358560878399    0.627309932173982  0.0000
  O3     O3        0.882393298739794    0.840889851991399    0.599943480859481  0.0000
  O3     O3        0.588523757395429    0.219602537511606    0.591496015626104  0.0000
  O3     O3        0.093627638668930    0.806002927407429    0.341339628964133  0.0000
  O1     O1        0.407332128094875    0.227431452884503    0.363887393576921  0.0000
  O1     O1        0.020701398961137    0.000704035448541    0.532148275204465  0.0000
  O3     O3        0.526250175088833    0.998298102059394    0.436139210264123  0.0000
  O1     O1        0.971046077865105    0.021918097894868    0.282752263985592  0.0000
  O1     O1        0.472417045430779    0.002367633313619    0.185295885673926  0.0000
  O1     O1        0.969352714918792    0.036571209381340    0.778817409015746  0.0000
  O3     O3        0.476966112390286    0.021785775901655    0.666831378054210  0.0000
  O1     O1        0.587318271263480    0.220467167897365    0.099656076592864  0.0000
  O1     O1        0.912988626056310    0.806053804310744    0.083925290338248  0.0000
  O1     O1        0.413201456666519    0.237751081993723    0.857129923350330  0.0000
  O1     O1        0.083780836346553    0.810339344833242    0.856326527661323  0.0000
  O1     O1        0.372432619782835    0.894613476801934    0.844398868924272  0.0000
  O1     O1        0.118696628267060    0.157336674896055    0.842680592347021  0.0000
  O1     O1        0.616241399003409    0.871453405311565    0.110668062581023  0.0000
  O1     O1        0.872084033355859    0.150581066286607    0.096027867169305  0.0000
  O1     O1        0.518244533964248    0.986264627292397    0.927346890330687  0.0000
  O1     O1        0.021431553727612    0.050459189774220    0.031041536346173  0.0000
  O3     O3        0.158636804849405    0.505758864495465    0.312306087429615  0.0000
  O1     O1        0.341085069968731    0.547092746703745    0.324049312580224  0.0000
  O3     O3        0.839152062450464    0.526934662171902    0.625909373765591  0.0000
  O3     O3        0.641025754878907    0.559535594268838    0.636404003216631  0.0000
  O1     O1        0.260049738292259    0.246644788731732    0.270132627185914  0.0000
  O3     O3        0.231279043206604    0.789292899756145    0.258702556749511  0.0000
  O1     O1        0.735281465073539    0.273631600418452    0.673045676293353  0.0000
  O2     O2        0.748124105582170    0.775390132310763    0.694823728164810  0.0000
  O1     O1        0.137671248283711    0.277912734748180    0.100434612750569  0.0000
  O1     O1        0.358051440076448    0.766369215902755    0.104245310112364  0.0000
  O1     O1        0.859796980395312    0.289315748913552    0.838099542789806  0.0000
  O3     O3        0.635777486194088    0.735242524071020    0.852315124064122  0.0000
  O3     O3        0.867290699064346    0.705191713219552    0.835017738197685  0.0000
  O1     O1        0.612732218198921    0.335085527695233    0.844164176848923  0.0000
  O3     O3        0.120611875070903    0.686776565658289    0.107500869495556  0.0000
  O1     O1        0.377346176336224    0.348287861652096    0.107954360189220  0.0000
  O1     O1        0.656404122308279    0.534099719729929    0.068114720451308  0.0000
  O1     O1        0.838480660992138    0.495544396661853    0.054440216308095  0.0000
  O1     O1        0.338833774273735    0.550242559367120    0.890340674258701  0.0000
  O1     O1        0.157037447639404    0.496032305879295    0.884375679655472  0.0000
  O1     O1        0.733498947197507    0.241902540909916    0.993417673731316  0.0000
  O1     O1        0.759365372066601    0.798646138153453    0.021647805482303  0.0000
  O1     O1        0.263023526740132    0.243996364757701    0.939008625593488  0.0000
  O1     O1        0.232538350729121    0.801297163786847    0.939287268866006  0.0000
