data_c00823.vasp
_audit_creation_method             Generated by GULP
_audit_author_name                 Salvador R. G. Balestra
_symmetry_space_group_name_H-M     'P 1             '
_symmetry_Int_Tables_number        1

loop_
_symmetry_equiv_pos_site_id
_symmetry_equiv_pos_as_xyz
_cell_length_a                       17.6148
_cell_length_b                        7.8300
_cell_length_c                       10.1834
_cell_angle_alpha                   89.6934
_cell_angle_beta                    89.8205
_cell_angle_gamma                   91.1792

loop_
_atom_site_label
_atom_site_type_symbol
_atom_site_fract_x
_atom_site_fract_y
_atom_site_fract_z
_atom_site_charge
  Ge     Ge        0.052090000000021    0.000000000000000    0.372269999999958  0.0000
  Ge     Ge        0.445208567437320    0.052540761097400    0.384512374163178  0.0000
  Ge     Ge        0.943819256140666    0.034372291395582    0.624635419636748  0.0000
  Ge     Ge        0.554403489372574    0.991821250871206    0.134781961777048  0.0000
  Ge     Ge        0.942305529802823    0.046356178325162    0.127282030317550  0.0000
  Ge     Ge        0.452721806001334    0.060767990886279    0.877154221691715  0.0000
  Ge     Ge        0.050331156883117    0.997046518432172    0.878259179591833  0.0000
  Ge     Ge        0.170640653247110    0.296996248304972    0.266680272406299  0.0000
  Ge     Ge        0.324274501885511    0.770499292657068    0.268073908392716  0.0000
  Ge     Ge        0.847471235903225    0.351746723815929    0.694094517184440  0.0000
  Ge     Ge        0.646251307229748    0.685052415360004    0.695589907696996  0.0000
  Ge     Ge        0.665494324679412    0.283843282409824    0.696598539269982  0.0000
  Ge     Ge        0.352960883992615    0.369026815141893    0.269324040081965  0.0000
  Ge     Ge        0.672687675722142    0.276817824556926    0.014765145972079  0.0000
  Ge     Ge        0.825520148758793    0.749758302682103    0.007985800613953  0.0000
  Ge     Ge        0.352951542935072    0.369182656256360    0.949105664641758  0.0000
  Ge     Ge        0.150751390662439    0.686017419661782    0.942823366096816  0.0000
  Ge     Ge        0.328214310584728    0.774547346363033    0.949484743334189  0.0000
  Ge     Ge        0.173905654958417    0.282133475981851    0.949725804572595  0.0000
  Ge     Ge        0.644899164820494    0.677262550778207    0.015566855802090  0.0000
  Si     Si        0.550912093665511    0.997310403564800    0.626847904218223  0.0000
  Si     Si        0.824817208725877    0.750086903437015    0.697239974358018  0.0000
  Si     Si        0.147241400504658    0.691953691154611    0.256276381139103  0.0000
  Si     Si        0.850188282142522    0.350489844797534    0.003090593861805  0.0000
  O1     O1        0.121406639180669    0.155890297720101    0.365213067554984  0.0000
  O1     O1        0.366350641719611    0.924313912986556    0.362570169645101  0.0000
  O1     O1        0.907703452220392    0.235133192467369    0.599900212689147  0.0000
  O3     O3        0.585772577976386    0.811607781474216    0.605333453208909  0.0000
  O3     O3        0.870913045677437    0.883063398561018    0.606363729663596  0.0000
  O3     O3        0.615585313595597    0.141001395716771    0.598815255257352  0.0000
  O3     O3        0.084108012426090    0.800273069817825    0.329849011885713  0.0000
  O1     O1        0.419190447819410    0.258978377253848    0.357286478789252  0.0000
  O1     O1        0.021555265044422    0.989639983625366    0.533718830030283  0.0000
  O3     O3        0.475035858585960    0.028590429256101    0.546423427842026  0.0000
  O1     O1        0.971063946792116    0.049299870448569    0.288254363381626  0.0000
  O1     O1        0.522450656238057    0.995969047309978    0.293724640647354  0.0000
  O1     O1        0.972760692407595    0.033940928838936    0.786496201461902  0.0000
  O3     O3        0.529558162762800    0.014789207394895    0.781324494337043  0.0000
  O1     O1        0.633618020310535    0.121334155999874    0.112451865723497  0.0000
  O1     O1        0.874409795602445    0.888493851120132    0.105177670157965  0.0000
  O1     O1        0.416864473621183    0.261324992378261    0.855128385944564  0.0000
  O1     O1        0.084628496866367    0.794343808592922    0.856069753997062  0.0000
  O1     O1        0.380869936430297    0.911931979208660    0.854850824209641  0.0000
  O1     O1        0.123606884656626    0.143148376842664    0.853692235078325  0.0000
  O1     O1        0.577533248463091    0.784649242039922    0.100536192927710  0.0000
  O3     O3        0.908858353640350    0.247775664212033    0.090757879589195  0.0000
  O1     O1        0.481425309565887    0.058954166724962    0.038642759097263  0.0000
  O1     O1        0.022916033470563    0.006871305410804    0.040764351041612  0.0000
  O3     O3        0.156857402465155    0.505465017915297    0.320410515013900  0.0000
  O1     O1        0.343704318231515    0.571836221952876    0.329865055126108  0.0000
  O3     O3        0.837560212599350    0.559826200992846    0.641738054379556  0.0000
  O1     O1        0.649947540724227    0.484825088493386    0.632250203190432  0.0000
  O1     O1        0.266403420665931    0.262699090776639    0.274376193558313  0.0000
  O3     O3        0.226917458698523    0.797457476590722    0.263086190547343  0.0000
  O1     O1        0.760721390458727    0.248021996134637    0.690289997347953  0.0000
  O3     O3        0.735337317571755    0.784772843642557    0.697739422544262  0.0000
  O1     O1        0.140069167111583    0.267913060494299    0.108652940782818  0.0000
  O1     O1        0.358350064613527    0.790099372466375    0.110179622018520  0.0000
  O3     O3        0.880604005034895    0.360347060730309    0.854147694238322  0.0000
  O1     O1        0.616208384703779    0.662752832872860    0.854605301035096  0.0000
  O3     O3        0.855465819700918    0.767821350954508    0.846117589755932  0.0000
  O1     O1        0.636414493599255    0.269485626461608    0.858007430392575  0.0000
  O3     O3        0.123893298608841    0.660616014386375    0.106315823165430  0.0000
  O1     O1        0.382727656039097    0.387784003429867    0.109359803954263  0.0000
  O1     O1        0.654003927444123    0.475090070107620    0.077797301145459  0.0000
  O3     O3        0.839484534362948    0.539928007483874    0.058418187313274  0.0000
  O1     O1        0.339517274644809    0.569768981679931    0.890410925964163  0.0000
  O1     O1        0.163183074877560    0.485519427683117    0.885232316547385  0.0000
  O3     O3        0.769556241266859    0.249010178193848    0.003357145930986  0.0000
  O1     O1        0.730619589848269    0.786927689838595    0.020374754086842  0.0000
  O1     O1        0.269631647795280    0.248127536963100    0.952020240493138  0.0000
  O1     O1        0.232844680233369    0.810133372955039    0.941282827682155  0.0000
