data_c00848.vasp
_audit_creation_method             Generated by GULP
_audit_author_name                 Salvador R. G. Balestra
_symmetry_space_group_name_H-M     'P 1             '
_symmetry_Int_Tables_number        1

loop_
_symmetry_equiv_pos_site_id
_symmetry_equiv_pos_as_xyz
_cell_length_a                       17.6305
_cell_length_b                        7.8250
_cell_length_c                       10.1513
_cell_angle_alpha                   88.4603
_cell_angle_beta                    90.9924
_cell_angle_gamma                   91.3911

loop_
_atom_site_label
_atom_site_type_symbol
_atom_site_fract_x
_atom_site_fract_y
_atom_site_fract_z
_atom_site_charge
  Ge     Ge        0.052090000000021    0.000000000000000    0.372269999999958  0.0000
  Ge     Ge        0.445521155560297    0.053531384992741    0.375723675212306  0.0000
  Ge     Ge        0.943127005292507    0.079760935369668    0.612385698391428  0.0000
  Ge     Ge        0.556021048387619    0.019966803798600    0.131265275612577  0.0000
  Ge     Ge        0.944202083328278    0.068570199701556    0.120027531189659  0.0000
  Ge     Ge        0.449779977601705    0.086917134899708    0.874951526381202  0.0000
  Ge     Ge        0.047383891084027    0.019220237852501    0.869299962757623  0.0000
  Ge     Ge        0.174297867082076    0.288992137414011    0.256965808633632  0.0000
  Ge     Ge        0.327836937457685    0.761741363951488    0.267550453890469  0.0000
  Ge     Ge        0.846340635701152    0.391679979147471    0.681596075358085  0.0000
  Ge     Ge        0.820740325086379    0.791868124634972    0.686524819479139  0.0000
  Ge     Ge        0.663189197371409    0.322917707145270    0.696148398263486  0.0000
  Ge     Ge        0.145291086902729    0.688673076222341    0.263437975096994  0.0000
  Ge     Ge        0.673221020137500    0.310744258030596    0.014264495403502  0.0000
  Ge     Ge        0.349523940345489    0.391822893558750    0.938874728540314  0.0000
  Ge     Ge        0.147596524151774    0.708006907773977    0.942720760587117  0.0000
  Ge     Ge        0.326625859194626    0.796578834690473    0.950572746554404  0.0000
  Ge     Ge        0.172105152326412    0.304445567039252    0.936433042346830  0.0000
  Ge     Ge        0.649716411971921    0.712092813341089    0.007803638558329  0.0000
  Ge     Ge        0.854416954063554    0.390899686662818    0.999752357000907  0.0000
  Si     Si        0.549874818221910    0.030677359121783    0.628415708152568  0.0000
  Si     Si        0.643898270463966    0.718008126482583    0.693824375629009  0.0000
  Si     Si        0.351519361131579    0.366230277111960    0.253976542761408  0.0000
  Si     Si        0.826313372170114    0.787388710694553    0.000636535629952  0.0000
  O1     O1        0.130917574577006    0.127476084020456    0.344982225104207  0.0000
  O1     O1        0.375626227975379    0.899042718330054    0.369621153216771  0.0000
  O1     O1        0.907089321737410    0.279626983141849    0.587198034467446  0.0000
  O2     O2        0.584532800544339    0.841021171616939    0.615064133081179  0.0000
  O1     O1        0.867744044737179    0.938140552099747    0.590282037453138  0.0000
  O3     O3        0.612630165163933    0.179393772520765    0.599482319785573  0.0000
  O1     O1        0.078806500913869    0.793789524081604    0.350580924935464  0.0000
  O3     O3        0.413579744573710    0.254893486400640    0.331811564207948  0.0000
  O1     O1        0.023002221016779    0.031162133810539    0.531450929437792  0.0000
  O3     O3        0.475690811346387    0.056466210779839    0.540053728344095  0.0000
  O1     O1        0.971910128821638    0.052082965470834    0.282788337129307  0.0000
  O1     O1        0.524810351269498    0.007993421430946    0.290264690598643  0.0000
  O1     O1        0.968620713003213    0.060050632337012    0.777799289276124  0.0000
  O3     O3        0.526239433470734    0.046634265515263    0.780611858158476  0.0000
  O1     O1        0.632048432212989    0.159267774713339    0.115597404755198  0.0000
  O3     O3        0.869588037976778    0.927766747521876    0.086734382030908  0.0000
  O1     O1        0.415445731778272    0.289571711622421    0.850780862783075  0.0000
  O1     O1        0.084104350993712    0.820622379842310    0.847633127859403  0.0000
  O1     O1        0.376388557254443    0.940538137794214    0.855315169131724  0.0000
  O1     O1        0.118385858729054    0.171185894366044    0.841361416689584  0.0000
  O1     O1        0.583433353360921    0.818954095952539    0.088737070736894  0.0000
  O1     O1        0.918646771969956    0.277569536159006    0.092043150180109  0.0000
  O1     O1        0.479794691065651    0.080708308455844    0.037007702936189  0.0000
  O1     O1        0.022634401163903    0.022217608869188    0.033348609558693  0.0000
  O1     O1        0.154023943888111    0.482431608529798    0.322977852973952  0.0000
  O3     O3        0.341683079004598    0.550058384372805    0.318120312184922  0.0000
  O1     O1        0.837821001060223    0.595757931375394    0.622281074802417  0.0000
  O3     O3        0.648477893922399    0.531220755521023    0.634102557995505  0.0000
  O3     O3        0.271535799222697    0.261247982576030    0.257025998518537  0.0000
  O1     O1        0.232153671643434    0.793952077963733    0.271524441521385  0.0000
  O1     O1        0.758574889935865    0.289071353457359    0.687267214538196  0.0000
  O3     O3        0.724250830079907    0.819936494298403    0.686877750231111  0.0000
  O1     O1        0.141979826927310    0.285209214997117    0.096888759013440  0.0000
  O1     O1        0.360407489716976    0.802798396440897    0.111026053231703  0.0000
  O1     O1        0.883168788356233    0.400397628881884    0.839593688979543  0.0000
  O3     O3        0.620904843449253    0.688564932180303    0.844993449644899  0.0000
  O3     O3        0.852760425914878    0.799629589496610    0.849310027207179  0.0000
  O1     O1        0.635583017292096    0.298376857414930    0.856744830452417  0.0000
  O1     O1        0.116232638606112    0.679409102476956    0.101616008925724  0.0000
  O3     O3        0.375992343731088    0.403096803685091    0.104404649581273  0.0000
  O1     O1        0.657688585786190    0.510651638459609    0.074083952305212  0.0000
  O3     O3        0.844157139865843    0.596561065450450    0.055871459910664  0.0000
  O1     O1        0.337630995095551    0.596540545179734    0.885173680706430  0.0000
  O1     O1        0.161485741494413    0.512846506641317    0.878899237337479  0.0000
  O1     O1        0.768805937971214    0.282742663758455    0.006776918803069  0.0000
  O3     O3        0.736897863877877    0.819601074079366    0.008928478593245  0.0000
  O1     O1        0.267283102905815    0.268209208289114    0.930770622853192  0.0000
  O1     O1        0.230937131599936    0.829228318536285    0.951547585997616  0.0000
