data_c00819.vasp
_audit_creation_method             Generated by GULP
_audit_author_name                 Salvador R. G. Balestra
_symmetry_space_group_name_H-M     'P 1             '
_symmetry_Int_Tables_number        1

loop_
_symmetry_equiv_pos_site_id
_symmetry_equiv_pos_as_xyz
_cell_length_a                       17.5807
_cell_length_b                        7.8197
_cell_length_c                       10.2000
_cell_angle_alpha                   88.2247
_cell_angle_beta                    90.3572
_cell_angle_gamma                   91.3892

loop_
_atom_site_label
_atom_site_type_symbol
_atom_site_fract_x
_atom_site_fract_y
_atom_site_fract_z
_atom_site_charge
  Ge     Ge        0.052090000000021    0.000000000000000    0.372269999999958  0.0000
  Ge     Ge        0.446395061184170    0.056470876413367    0.410290780325595  0.0000
  Ge     Ge        0.944414552003759    0.066584680023386    0.617102523868590  0.0000
  Ge     Ge        0.555850328922200    0.011332607119497    0.164169800580998  0.0000
  Ge     Ge        0.952983433257903    0.070692407605266    0.112006290190201  0.0000
  Ge     Ge        0.452095731234391    0.088286270983313    0.906909490932659  0.0000
  Ge     Ge        0.058427840096146    0.023551742486373    0.860570505639712  0.0000
  Ge     Ge        0.174477487908239    0.286551262141087    0.291598461870635  0.0000
  Ge     Ge        0.329910879508192    0.764279131607672    0.302552292663312  0.0000
  Ge     Ge        0.853038383589977    0.384278043644510    0.729942638788942  0.0000
  Ge     Ge        0.646835729608771    0.713052175944094    0.725521248890147  0.0000
  Ge     Ge        0.669244935611137    0.312748664765755    0.728867892705284  0.0000
  Ge     Ge        0.149000196134405    0.689386347323141    0.301798365779260  0.0000
  Ge     Ge        0.675703505605480    0.300059773811223    0.046355702139589  0.0000
  Ge     Ge        0.826223408618654    0.787589765153843    0.041091750379404  0.0000
  Ge     Ge        0.353955086326448    0.397158046854180    0.972846370896327  0.0000
  Ge     Ge        0.329511400452248    0.798654554328003    0.986991710834451  0.0000
  Ge     Ge        0.174223359470458    0.316360398809669    0.974629078436420  0.0000
  Ge     Ge        0.646711168090967    0.703135983713037    0.044165498458910  0.0000
  Ge     Ge        0.856105022849672    0.385861308636918    0.045600086343324  0.0000
  Si     Si        0.551834185648206    0.028787494054245    0.657683082782393  0.0000
  Si     Si        0.826232271660863    0.780136709967830    0.730005010852074  0.0000
  Si     Si        0.351957539119429    0.366872856998946    0.285896641524576  0.0000
  Si     Si        0.152032072289163    0.716000230294856    0.990397115565077  0.0000
  O1     O1        0.128883052181164    0.139050732002695    0.391249285309759  0.0000
  O1     O1        0.378184039654880    0.897376155000839    0.405667758305557  0.0000
  O1     O1        0.915684419685445    0.271598885787638    0.639289142859301  0.0000
  O3     O3        0.585399495575188    0.842241556248592    0.636266338359853  0.0000
  O3     O3        0.868690605480537    0.925867194157130    0.643056427519251  0.0000
  O3     O3        0.619353038819460    0.168454989578768    0.634032990011109  0.0000
  O1     O1        0.083947368164738    0.794987251816651    0.391911419832776  0.0000
  O3     O3        0.412874834735850    0.256074954793422    0.366053014418595  0.0000
  O1     O1        0.972777554381212    0.047041508301382    0.456284692282384  0.0000
  O3     O3        0.477698977087654    0.066524988297041    0.572330405624820  0.0000
  O1     O1        0.028435732170441    0.022546600149720    0.207315831629658  0.0000
  O1     O1        0.525355798110710    0.010352340818617    0.323316805908588  0.0000
  O1     O1        0.026082593298783    0.015870438568272    0.701315809555916  0.0000
  O3     O3        0.527016944053105    0.039029864211873    0.810303169803793  0.0000
  O1     O1        0.633584027347318    0.146414353695211    0.145085148835996  0.0000
  O1     O1        0.877228342316387    0.927461195754633    0.131808729278046  0.0000
  O1     O1        0.420025587292892    0.293323246534480    0.884701940506746  0.0000
  O3     O3        0.092910181839702    0.824104302642191    0.904597380619197  0.0000
  O1     O1        0.374721245123154    0.950166911426739    0.891298225367958  0.0000
  O1     O1        0.125813589601796    0.185411130980520    0.870853642630476  0.0000
  O1     O1        0.579413792454422    0.805398361967922    0.129480044497889  0.0000
  O1     O1        0.919859607427939    0.272202274615738    0.138334535861520  0.0000
  O1     O1        0.481739898069745    0.076606135364910    0.067589957145433  0.0000
  O1     O1        0.979794055197731    0.065235182042076    0.949864720020691  0.0000
  O1     O1        0.156051192149959    0.482763777287603    0.355508378762582  0.0000
  O3     O3        0.340828756460346    0.550044531451550    0.349657896295635  0.0000
  O3     O3        0.841637324323474    0.594184750918672    0.672595419910741  0.0000
  O1     O1        0.651536234284074    0.514361959296660    0.662960706403230  0.0000
  O3     O3        0.271975557029134    0.260210842059359    0.286528724408388  0.0000
  O1     O1        0.234472639133383    0.800204246515501    0.310369312374115  0.0000
  O1     O1        0.765293472808117    0.282008522346122    0.724835480557215  0.0000
  O3     O3        0.736313090636971    0.811749888794873    0.729412319410190  0.0000
  O1     O1        0.142274111282556    0.276791442918248    0.131728010599214  0.0000
  O1     O1        0.362777175341373    0.806798459047113    0.146344515162855  0.0000
  O1     O1        0.887879596794146    0.394861705295891    0.885713382799685  0.0000
  O1     O1        0.616747427177396    0.687632401050996    0.884230490099569  0.0000
  O3     O3        0.856652935734406    0.789385784499905    0.878934028808649  0.0000
  O1     O1        0.639289283062390    0.294519476010869    0.889072545166243  0.0000
  O3     O3        0.121606413280977    0.685670912714344    0.137533104046145  0.0000
  O3     O3        0.379275500075925    0.403602316320496    0.138038670565120  0.0000
  O1     O1        0.660899333373759    0.500780353663022    0.106352482308407  0.0000
  O1     O1        0.842527513730333    0.583327155814728    0.104049723264993  0.0000
  O1     O1        0.347170676026683    0.604095669111318    0.919659960805337  0.0000
  O3     O3        0.163713813351610    0.531683551985372    0.929592157229681  0.0000
  O1     O1        0.771403248538626    0.269853133507057    0.039591598858824  0.0000
  O1     O1        0.730888070678128    0.822081153248798    0.047361552261341  0.0000
  O1     O1        0.269615478058093    0.282135802407186    0.964235749559113  0.0000
  O3     O3        0.231954349889713    0.822604732614829    0.994104620853778  0.0000
