data_c00831.vasp
_audit_creation_method             Generated by GULP
_audit_author_name                 Salvador R. G. Balestra
_symmetry_space_group_name_H-M     'P 1             '
_symmetry_Int_Tables_number        1

loop_
_symmetry_equiv_pos_site_id
_symmetry_equiv_pos_as_xyz
_cell_length_a                       17.6240
_cell_length_b                        7.8256
_cell_length_c                       10.0990
_cell_angle_alpha                   89.3077
_cell_angle_beta                    90.0065
_cell_angle_gamma                   91.2302

loop_
_atom_site_label
_atom_site_type_symbol
_atom_site_fract_x
_atom_site_fract_y
_atom_site_fract_z
_atom_site_charge
  Ge     Ge        0.052090000000021    0.000000000000000    0.372269999999958  0.0000
  Ge     Ge        0.438072154336212    0.056675603920303    0.375786077719407  0.0000
  Ge     Ge        0.939566563841818    0.050393862765763    0.616835628272762  0.0000
  Ge     Ge        0.550016436904707    0.009406903244208    0.128610782023185  0.0000
  Ge     Ge        0.943184917307198    0.063915866391757    0.124045171702448  0.0000
  Ge     Ge        0.448380342296526    0.074628721414349    0.868986684376258  0.0000
  Ge     Ge        0.046326875870466    0.007126254470073    0.869947857458124  0.0000
  Ge     Ge        0.168957748423324    0.298101307537427    0.259296619477816  0.0000
  Ge     Ge        0.322693069519082    0.763838294924160    0.263954784468839  0.0000
  Ge     Ge        0.845102581047280    0.370843889779422    0.684378446013489  0.0000
  Ge     Ge        0.641240357447565    0.702106296951283    0.682631256614986  0.0000
  Ge     Ge        0.662213805497554    0.301478552027621    0.689939088452742  0.0000
  Ge     Ge        0.669822438592504    0.295622635185644    0.010438116306242  0.0000
  Ge     Ge        0.820618601500122    0.779912630071412    0.998837245474162  0.0000
  Ge     Ge        0.347529979169487    0.379978974860063    0.939646109617899  0.0000
  Ge     Ge        0.147155489436394    0.697770476991681    0.939995106930983  0.0000
  Ge     Ge        0.324835860731704    0.787059014374456    0.945122455448372  0.0000
  Ge     Ge        0.169869631099956    0.291916020800731    0.939553046826235  0.0000
  Ge     Ge        0.641239824072645    0.698303777635239    0.005173083166757  0.0000
  Ge     Ge        0.850957744282316    0.375873268572136    0.002849150217627  0.0000
  Si     Si        0.546743945533277    0.016702612636800    0.617531112025872  0.0000
  Si     Si        0.819527912283743    0.766076186653885    0.683283422757464  0.0000
  Si     Si        0.144723252049300    0.691718244577346    0.255606124469452  0.0000
  Si     Si        0.346965075948982    0.369415457331032    0.255865705207130  0.0000
  O1     O1        0.123685683440300    0.150887407539473    0.358612737768723  0.0000
  O1     O1        0.365914823149792    0.907363401868356    0.366809198222276  0.0000
  O1     O1        0.903624610085397    0.250154474514148    0.588403014353242  0.0000
  O3     O3        0.579741483760049    0.829648425179378    0.593358051371111  0.0000
  O3     O3        0.866706266874206    0.900504497242291    0.593702087656939  0.0000
  O3     O3        0.613260035159360    0.156797860584534    0.591782921804200  0.0000
  O3     O3        0.083613662518059    0.798436794378745    0.335514375045196  0.0000
  O3     O3        0.407267125536719    0.259222120610791    0.336901364361883  0.0000
  O1     O1        0.020356286818294    0.002701735721844    0.533938681516104  0.0000
  O3     O3        0.470378269919927    0.055012766555699    0.539007248811000  0.0000
  O1     O1        0.971022944060820    0.047746305790552    0.286731487973794  0.0000
  O1     O1        0.517169859097822    0.006785530237151    0.288434732142746  0.0000
  O1     O1        0.966939754113826    0.045593669731658    0.781708089230888  0.0000
  O3     O3        0.525514721666863    0.030387426661014    0.773651026645854  0.0000
  O1     O1        0.627191514900586    0.145169602448846    0.110848193430752  0.0000
  O1     O1        0.867105459004957    0.931070469786476    0.088797690187418  0.0000
  O1     O1        0.413048261864989    0.276605420816546    0.847497165255774  0.0000
  O1     O1        0.081724433305025    0.805570530689571    0.849273809275203  0.0000
  O1     O1        0.376238047049312    0.925583451395581    0.848150731632771  0.0000
  O1     O1        0.117891463625208    0.157161220829667    0.842376802017596  0.0000
  O1     O1        0.573978296600092    0.803680110269155    0.091091053234087  0.0000
  O1     O1        0.916848243511063    0.271449311177938    0.095505905420807  0.0000
  O1     O1        0.476065686362531    0.073037190352088    0.032035833701552  0.0000
  O1     O1        0.021521580680836    0.012618084131997    0.035248268894293  0.0000
  O3     O3        0.152005785313939    0.502277505372584    0.317008135396593  0.0000
  O3     O3        0.339329239176555    0.556546521135503    0.318109264365303  0.0000
  O3     O3        0.832653105645595    0.576936157104305    0.626194999918743  0.0000
  O1     O1        0.645583464685199    0.500911223708647    0.621446399416773  0.0000
  O3     O3        0.266077452039534    0.268877060132357    0.259995074820158  0.0000
  O3     O3        0.225596693826165    0.792157908255555    0.261632577263884  0.0000
  O1     O1        0.757734556340982    0.268043858137985    0.688826678023935  0.0000
  O3     O3        0.730299608613637    0.802490651613693    0.681337865375235  0.0000
  O1     O1        0.137340965953036    0.272307806627021    0.100578574913872  0.0000
  O1     O1        0.356447848585304    0.801091350542038    0.106825467967080  0.0000
  O1     O1        0.881703703690307    0.381985140061005    0.841096496279570  0.0000
  O1     O1        0.612067004227928    0.679248805310618    0.843405334079953  0.0000
  O3     O3        0.849318083096538    0.778361611761390    0.834155809552583  0.0000
  O1     O1        0.632919999284037    0.287231984638002    0.852384614170985  0.0000
  O3     O3        0.119151320629202    0.670335161282841    0.104229975815307  0.0000
  O3     O3        0.373758924169271    0.396726753813558    0.105279394046337  0.0000
  O1     O1        0.654729445398951    0.498186873299743    0.069696533046855  0.0000
  O1     O1        0.839217899053594    0.578581873391902    0.060209716549473  0.0000
  O1     O1        0.335629246921395    0.583046656971081    0.884346193368250  0.0000
  O1     O1        0.159727792945534    0.498653082392656    0.880251510574344  0.0000
  O1     O1        0.765529170383521    0.264610955387974    0.005589119475523  0.0000
  O1     O1        0.725376491208356    0.814730582527186    0.007028716510210  0.0000
  O1     O1        0.265299916653003    0.256354492598586    0.935677260972353  0.0000
  O1     O1        0.229254844294609    0.821834791927802    0.940490134940973  0.0000
