data_c00802.vasp
_audit_creation_method             Generated by GULP
_audit_author_name                 Salvador R. G. Balestra
_symmetry_space_group_name_H-M     'P 1             '
_symmetry_Int_Tables_number        1

loop_
_symmetry_equiv_pos_site_id
_symmetry_equiv_pos_as_xyz
_cell_length_a                       17.5983
_cell_length_b                        7.8106
_cell_length_c                       10.2600
_cell_angle_alpha                   89.8395
_cell_angle_beta                    90.5436
_cell_angle_gamma                   88.5566

loop_
_atom_site_label
_atom_site_type_symbol
_atom_site_fract_x
_atom_site_fract_y
_atom_site_fract_z
_atom_site_charge
  Ge     Ge        0.052090000000021    0.000000000000000    0.372269999999958  0.0000
  Ge     Ge        0.453123357465006    0.948474350927979    0.387961599727193  0.0000
  Ge     Ge        0.947346086850897    0.955261523249790    0.628152567326355  0.0000
  Ge     Ge        0.564144600286122    0.011095993314652    0.143991685370191  0.0000
  Ge     Ge        0.947459522222905    0.958017372038069    0.120252891599528  0.0000
  Ge     Ge        0.459233352335962    0.944642121080273    0.886366975567975  0.0000
  Ge     Ge        0.055871398385351    0.012471881932124    0.878107590363561  0.0000
  Ge     Ge        0.148012194962065    0.314357801537955    0.261124147203988  0.0000
  Ge     Ge        0.359191787238418    0.635358843999748    0.271977368217309  0.0000
  Ge     Ge        0.829103609719082    0.250159052485159    0.703331677922777  0.0000
  Ge     Ge        0.671913387323251    0.724453733337707    0.705888142793470  0.0000
  Ge     Ge        0.647210025200987    0.321205941522028    0.707198527078409  0.0000
  Ge     Ge        0.177803124100472    0.716530993081776    0.266308286844897  0.0000
  Ge     Ge        0.329178152834391    0.231447260273406    0.272308865499922  0.0000
  Ge     Ge        0.655439593249981    0.325961102120270    0.023998730211597  0.0000
  Ge     Ge        0.333500575035842    0.229991069805926    0.956621402921410  0.0000
  Ge     Ge        0.180772084194593    0.724931053046534    0.949941614646548  0.0000
  Ge     Ge        0.359620804593584    0.634600040471561    0.954391782198753  0.0000
  Ge     Ge        0.154996666575148    0.322632358800631    0.943651203968443  0.0000
  Ge     Ge        0.682674433606695    0.726083608009410    0.025198651509087  0.0000
  Si     Si        0.554737079297340    0.009378183430829    0.634963149443447  0.0000
  Si     Si        0.848607908253676    0.649632251505734    0.696558605262879  0.0000
  Si     Si        0.858648983389545    0.646854640213351    0.001575122567545  0.0000
  Si     Si        0.834759623067809    0.253189947447873    0.009454771552763  0.0000
  O1     O1        0.078727312590038    0.205795037219621    0.340329692708955  0.0000
  O1     O1        0.426657156670540    0.742431241697797    0.359557521754732  0.0000
  O1     O1        0.878961079689347    0.114523206809340    0.604657027352845  0.0000
  O3     O3        0.623638010180363    0.873392875495222    0.610192852379376  0.0000
  O3     O3        0.907605519122763    0.754375586253866    0.612243690532708  0.0000
  O3     O3        0.583697401098466    0.201044975226371    0.617157523461974  0.0000
  O1     O1        0.129533099260572    0.865558405326472    0.356734784047651  0.0000
  O1     O1        0.375382351438845    0.081120306190685    0.367032628903016  0.0000
  O1     O1        0.023775556378689    0.982587620569402    0.532343588682445  0.0000
  O3     O3        0.481369824294376    0.969129309331058    0.550491568903579  0.0000
  O1     O1        0.973534481467007    0.946273830880769    0.281461918288629  0.0000
  O1     O1        0.531323350707833    0.002937989138511    0.300402839677166  0.0000
  O1     O1        0.978008294393614    0.971019170014198    0.787300287321331  0.0000
  O3     O3        0.534345980299679    0.985785072485120    0.787839118213757  0.0000
  O1     O1        0.592899902182360    0.216337400484009    0.115458870355967  0.0000
  O3     O3        0.922403329187251    0.751418213975629    0.074881561370570  0.0000
  O1     O1        0.385667608601297    0.091055786659396    0.863869367419298  0.0000
  O1     O1        0.129331365302690    0.865739047776304    0.855523812681803  0.0000
  O1     O1        0.425184142012274    0.742358629210229    0.865633252831948  0.0000
  O1     O1        0.091357761567000    0.212685803951693    0.851228043780133  0.0000
  O1     O1        0.642922696588286    0.879998003929382    0.121054849185433  0.0000
  O3     O3        0.877447339826927    0.117244356269442    0.102447590488408  0.0000
  O1     O1        0.490265335626451    0.953390683235809    0.045917931113270  0.0000
  O1     O1        0.027950051422375    0.008107693281032    0.039405479482611  0.0000
  O1     O1        0.160877670961389    0.514344446258621    0.325457208882304  0.0000
  O1     O1        0.345663308301315    0.433533243801010    0.332022171119605  0.0000
  O3     O3        0.840270862924333    0.458426070082039    0.646000237832624  0.0000
  O1     O1        0.651447524789419    0.524279950684083    0.646842853964446  0.0000
  O1     O1        0.233202902562171    0.199578794240084    0.270129591226926  0.0000
  O1     O1        0.273979045366098    0.748895974157420    0.273226730522785  0.0000
  O1     O1        0.734042258552658    0.214595365644473    0.700303680886055  0.0000
  O3     O3        0.768516694759487    0.753709656019358    0.692430121733381  0.0000
  O1     O1        0.123215510760397    0.344478271203708    0.100887202090594  0.0000
  O1     O1        0.389266127320242    0.615107761653403    0.114201319172286  0.0000
  O3     O3        0.862931406379634    0.224837469810176    0.862309239864753  0.0000
  O1     O1        0.648409062203397    0.739420598710638    0.867661738429927  0.0000
  O2     O2        0.876741818131804    0.639053259123936    0.847699084184546  0.0000
  O1     O1        0.620594089084202    0.336191520753229    0.867068111149544  0.0000
  O1     O1        0.147464343194998    0.734371619807457    0.106953006409528  0.0000
  O1     O1        0.364103679509917    0.215114324638920    0.116445021849394  0.0000
  O1     O1        0.661796802526577    0.527737352278965    0.085682429541355  0.0000
  O2     O2        0.852022877785847    0.450487653476418    0.052200164330959  0.0000
  O1     O1        0.346057682719440    0.434402855424665    0.895851411492833  0.0000
  O1     O1        0.170476624415759    0.522074100307281    0.884884461120157  0.0000
  O3     O3        0.744936628457900    0.227052471618910    0.017050440777188  0.0000
  O3     O3        0.779965814185364    0.749359605344078    0.024628454447967  0.0000
  O1     O1        0.237809300425019    0.197811887853759    0.951335669295695  0.0000
  O1     O1        0.276650827606041    0.758391418135707    0.953184758759519  0.0000
