data_c00853.vasp
_audit_creation_method             Generated by GULP
_audit_author_name                 Salvador R. G. Balestra
_symmetry_space_group_name_H-M     'P 1             '
_symmetry_Int_Tables_number        1

loop_
_symmetry_equiv_pos_site_id
_symmetry_equiv_pos_as_xyz
_cell_length_a                       17.8179
_cell_length_b                        7.8622
_cell_length_c                       10.3062
_cell_angle_alpha                   89.2855
_cell_angle_beta                    89.9341
_cell_angle_gamma                   89.6286

loop_
_atom_site_label
_atom_site_type_symbol
_atom_site_fract_x
_atom_site_fract_y
_atom_site_fract_z
_atom_site_charge
  Ge     Ge        0.052090000000021    0.000000000000000    0.372269999999958  0.0000
  Ge     Ge        0.444819283418704    0.974445726338408    0.351310526821084  0.0000
  Ge     Ge        0.943536177345464    0.001944814132026    0.620490029435836  0.0000
  Ge     Ge        0.546068071183833    0.977149114704524    0.089367452282408  0.0000
  Ge     Ge        0.942965737686360    0.998690140475416    0.125290863553235  0.0000
  Ge     Ge        0.440677558761887    0.982711754737997    0.836197151281605  0.0000
  Ge     Ge        0.048959516335635    0.006763896585917    0.875828527939091  0.0000
  Ge     Ge        0.148419867837862    0.316142364714505    0.260883370923675  0.0000
  Ge     Ge        0.342574818852408    0.669731705723693    0.264930939095488  0.0000
  Ge     Ge        0.839685166170767    0.314623126440571    0.685891694709527  0.0000
  Ge     Ge        0.823783507221156    0.717543809360142    0.693698364256295  0.0000
  Ge     Ge        0.658487655156863    0.275031868846685    0.699846771790150  0.0000
  Ge     Ge        0.329319513384501    0.261404471299401    0.265710735221613  0.0000
  Ge     Ge        0.666812179229562    0.256635491142365    0.015843622069539  0.0000
  Ge     Ge        0.824134737856242    0.719552458831306    0.008091918861920  0.0000
  Ge     Ge        0.328183313433163    0.271616096466617    0.952970127595728  0.0000
  Ge     Ge        0.170448544858431    0.724587858509073    0.947454719859111  0.0000
  Ge     Ge        0.146722168615813    0.322462405550935    0.947872674339163  0.0000
  Ge     Ge        0.646314094561317    0.662379478386121    0.014266031871793  0.0000
  Ge     Ge        0.845153632571293    0.311066667061717    0.004814881135766  0.0000
  Si     Si        0.549084788170881    0.980415866336020    0.595630788119663  0.0000
  Si     Si        0.646095129547724    0.673706148932628    0.706310998755892  0.0000
  Si     Si        0.166915639035125    0.715529138712713    0.256908593470603  0.0000
  Si     Si        0.346375647671152    0.675667240283387    0.956213621999642  0.0000
  O1     O1        0.088717009248242    0.200313319972658    0.356507323391453  0.0000
  O1     O1        0.401128881973004    0.781369710784410    0.362039008646985  0.0000
  O1     O1        0.902088417143718    0.197685852607747    0.596783952021206  0.0000
  O2     O2        0.591127204364518    0.802976948798373    0.629074446449442  0.0000
  O1     O1        0.872627156167926    0.856988889758993    0.598836728132702  0.0000
  O3     O3        0.602577484443156    0.141530527254819    0.611134883553693  0.0000
  O3     O3        0.118885345349051    0.846826039816684    0.340329037838041  0.0000
  O1     O1        0.378212287455257    0.130970815711454    0.370033226579947  0.0000
  O1     O1        0.022456807175325    0.973054633887989    0.530142225423015  0.0000
  O3     O3        0.523719553907070    0.980449893788654    0.446197377957174  0.0000
  O1     O1        0.971389620167386    0.981866073652039    0.283755570316947  0.0000
  O1     O1        0.474274775531807    0.006035350528223    0.193507819919528  0.0000
  O1     O1        0.973219506232827    0.979181257432986    0.779487850832402  0.0000
  O3     O3        0.472443744196071    0.991866489504975    0.677281276205782  0.0000
  O1     O1        0.618279249219288    0.119093601489282    0.111969299675237  0.0000
  O1     O1        0.872133583830990    0.855887355737948    0.103903525939808  0.0000
  O1     O1        0.374114218266349    0.140315316741453    0.848805357179970  0.0000
  O1     O1        0.123487570189455    0.867671164835394    0.853704049314807  0.0000
  O3     O3        0.404599417797525    0.782849359980027    0.870956097633752  0.0000
  O1     O1        0.085014595262705    0.207800568608411    0.857234366583581  0.0000
  O1     O1        0.581666850587087    0.773520864111499    0.101321132181770  0.0000
  O1     O1        0.911897376208323    0.201899334175932    0.090259759397374  0.0000
  O1     O1        0.515372171705303    0.019573434014426    0.933717228640268  0.0000
  O1     O1        0.020413472381146    0.960277581977698    0.031873620151627  0.0000
  O3     O3        0.156327150193963    0.524248402802347    0.312623971680317  0.0000
  O1     O1        0.340468406441870    0.465916439414535    0.319429270518647  0.0000
  O1     O1        0.836380278426671    0.519348526413848    0.629326165757030  0.0000
  O3     O3        0.648006392514138    0.486157181203287    0.646018662458033  0.0000
  O1     O1        0.235100802448219    0.219759348619998    0.265186618760911  0.0000
  O3     O3        0.254211628246171    0.763613855064699    0.265631044442534  0.0000
  O1     O1        0.751636364077428    0.224707655100216    0.681531932892246  0.0000
  O3     O3        0.728210463959066    0.757123857291682    0.702308915258139  0.0000
  O1     O1        0.114297933247529    0.314678989460981    0.105672375595381  0.0000
  O3     O3        0.374006341697711    0.675204325168620    0.105117364494117  0.0000
  O1     O1        0.870529003403624    0.318489616024850    0.844006260346924  0.0000
  O3     O3        0.617290065872425    0.655393303658591    0.853006706111088  0.0000
  O1     O1        0.855912466942408    0.730049031829975    0.850605986154366  0.0000
  O1     O1        0.633642817560226    0.256063841848057    0.858627274241091  0.0000
  O3     O3        0.140616786997487    0.720982476318291    0.108018410006704  0.0000
  O1     O1        0.361142765554081    0.243941310936346    0.108139425335784  0.0000
  O1     O1        0.656146103303812    0.460840022190661    0.073691252571845  0.0000
  O1     O1        0.835870619591792    0.512889019700347    0.062762883630312  0.0000
  O3     O3        0.339663695961032    0.484022192376900    0.906792483366278  0.0000
  O1     O1        0.152638877828611    0.525163279390404    0.888633060912517  0.0000
  O1     O1        0.760504520095176    0.207127704364358    0.014381785762125  0.0000
  O1     O1        0.730370720421179    0.768030347466983    0.015384505157253  0.0000
  O1     O1        0.234256081155569    0.228894445284608    0.949511393755728  0.0000
  O3     O3        0.265296216951236    0.767167720158267    0.946373060867625  0.0000
