data_c00830.vasp
_audit_creation_method             Generated by GULP
_audit_author_name                 Salvador R. G. Balestra
_symmetry_space_group_name_H-M     'P 1             '
_symmetry_Int_Tables_number        1

loop_
_symmetry_equiv_pos_site_id
_symmetry_equiv_pos_as_xyz
_cell_length_a                       17.8203
_cell_length_b                        7.8019
_cell_length_c                       10.3821
_cell_angle_alpha                   89.5746
_cell_angle_beta                    90.0778
_cell_angle_gamma                   90.7089

loop_
_atom_site_label
_atom_site_type_symbol
_atom_site_fract_x
_atom_site_fract_y
_atom_site_fract_z
_atom_site_charge
  Ge     Ge        0.052090000000021    0.000000000000000    0.372269999999958  0.0000
  Ge     Ge        0.449071084821729    0.047605603550857    0.412481332185720  0.0000
  Ge     Ge        0.944000454643845    0.005971614876921    0.623357242624580  0.0000
  Ge     Ge        0.555804213072761    0.020402420975829    0.159961286826737  0.0000
  Ge     Ge        0.947907795145677    0.003108324886698    0.117155756890988  0.0000
  Ge     Ge        0.449295043037136    0.034189072924188    0.911229829553500  0.0000
  Ge     Ge        0.053594972588704    0.000879556449022    0.869808470260441  0.0000
  Ge     Ge        0.170610060892344    0.291612045431633    0.304836019895496  0.0000
  Ge     Ge        0.326943287873639    0.763231493686368    0.295832562630557  0.0000
  Ge     Ge        0.828454844124650    0.296719705870517    0.730393953799216  0.0000
  Ge     Ge        0.664153717280344    0.748331533935470    0.738366803312283  0.0000
  Ge     Ge        0.649409668877753    0.340066164038206    0.728389337180716  0.0000
  Ge     Ge        0.350664824573949    0.356928460069933    0.309300732063717  0.0000
  Ge     Ge        0.847498075113152    0.684605680103034    0.046965599001674  0.0000
  Ge     Ge        0.352374609328102    0.349647115586471    0.994866351598798  0.0000
  Ge     Ge        0.147668389558005    0.688062933688231    0.988269883295142  0.0000
  Ge     Ge        0.325636540575256    0.756947145967273    0.981701397428493  0.0000
  Ge     Ge        0.173453993037428    0.277506600017438    0.992940232532964  0.0000
  Ge     Ge        0.669164011267002    0.734193134069921    0.049250821127860  0.0000
  Ge     Ge        0.825658096422913    0.276305093023476    0.042928360985375  0.0000
  Si     Si        0.550197728008978    0.029433975932649    0.660631888277803  0.0000
  Si     Si        0.840883199470577    0.701403648173764    0.740388954808855  0.0000
  Si     Si        0.151567824943781    0.693793399372241    0.295607778500560  0.0000
  Si     Si        0.650934517340413    0.330487589051601    0.036647518903795  0.0000
  O1     O1        0.117200991118674    0.160026008021162    0.402011152788211  0.0000
  O1     O1        0.373665696308131    0.914582534569705    0.382790910806971  0.0000
  O1     O1        0.884978828435802    0.177004598380853    0.634824296956002  0.0000
  O3     O3        0.615936140324196    0.891526531181077    0.642693993070206  0.0000
  O3     O3        0.897735227278431    0.815320667892163    0.656688672150391  0.0000
  O3     O3        0.585261822022866    0.219213249727066    0.641930188985393  0.0000
  O3     O3        0.094446834860053    0.801121688885660    0.381270944588289  0.0000
  O1     O1        0.415516199596811    0.251482098729185    0.401265513776253  0.0000
  O1     O1        0.974229842383777    0.001539990819136    0.466423219520621  0.0000
  O3     O3        0.480051696927022    0.003321909833133    0.567848618324614  0.0000
  O1     O1        0.021021797761654    0.037677659170027    0.217394873282376  0.0000
  O1     O1        0.525385793528373    0.019394788699885    0.316135224295611  0.0000
  O1     O1        0.024613365895901    0.022108540183316    0.712954789970892  0.0000
  O3     O3        0.522469735011825    0.005802822161431    0.807474619279867  0.0000
  O3     O3        0.591094267664428    0.221302863171549    0.117444759829136  0.0000
  O1     O1        0.914477886156010    0.795839307347251    0.129714022697625  0.0000
  O1     O1        0.416295697202939    0.239469079327910    0.905601522167077  0.0000
  O1     O1        0.079619525955878    0.793234844243444    0.905218917073420  0.0000
  O1     O1        0.375216708165355    0.894670870948562    0.885259797789040  0.0000
  O1     O1        0.129318160621815    0.134504138542821    0.894484034652763  0.0000
  O1     O1        0.620895828646033    0.861081805702666    0.151778582428732  0.0000
  O1     O1        0.871877908453067    0.135477015196330    0.138568332614710  0.0000
  O1     O1        0.480394024295260    0.981098664665539    0.063206120884033  0.0000
  O1     O1        0.978648982463707    0.051796027091258    0.963733159172784  0.0000
  O3     O3        0.160952179220117    0.504115462761310    0.352196509936956  0.0000
  O1     O1        0.343486116014940    0.563673619002314    0.360566195717430  0.0000
  O3     O3        0.832981917171411    0.511490170694960    0.683857242245927  0.0000
  O1     O1        0.649517013033408    0.547450272358519    0.675265278386604  0.0000
  O1     O1        0.264783474432781    0.252496975027064    0.316082459433636  0.0000
  O3     O3        0.230905386244037    0.796110668005545    0.294572330361055  0.0000
  O1     O1        0.735018175573696    0.244187661277448    0.715047099645135  0.0000
  O3     O3        0.759830557787177    0.791606620691223    0.740353616059850  0.0000
  O1     O1        0.141338064347898    0.263141100365011    0.148734650996184  0.0000
  O1     O1        0.355975923367937    0.769794357716214    0.139064496810901  0.0000
  O1     O1        0.856748318420856    0.267967630013960    0.886172280334418  0.0000
  O1     O1        0.635275400555423    0.760114015950206    0.895600296492906  0.0000
  O3     O3        0.872406072412873    0.687453636722968    0.884913203863014  0.0000
  O3     O3        0.623694384740624    0.346976644564612    0.889462793042903  0.0000
  O3     O3        0.121689108864158    0.681381669961479    0.149480306237397  0.0000
  O1     O1        0.382101568202291    0.356600175603342    0.152464016986864  0.0000
  O3     O3        0.661022036125002    0.519211167552978    0.094513548173359  0.0000
  O1     O1        0.842024248228298    0.479103729215424    0.101644436515047  0.0000
  O1     O1        0.339887789804814    0.549237232601888    0.931866242290549  0.0000
  O1     O1        0.157633305196062    0.482761003016000    0.936038303635296  0.0000
  O3     O3        0.730183664883956    0.232960381818240    0.039772349700496  0.0000
  O1     O1        0.762616099003624    0.785186824490369    0.057516625006094  0.0000
  O1     O1        0.267872500413344    0.239591216418794    0.995338505538213  0.0000
  O1     O1        0.231513949557577    0.797717839735364    0.973503857076071  0.0000
