data_c00828.vasp
_audit_creation_method             Generated by GULP
_audit_author_name                 Salvador R. G. Balestra
_symmetry_space_group_name_H-M     'P 1             '
_symmetry_Int_Tables_number        1

loop_
_symmetry_equiv_pos_site_id
_symmetry_equiv_pos_as_xyz
_cell_length_a                       17.8395
_cell_length_b                        7.7940
_cell_length_c                       10.3762
_cell_angle_alpha                   90.5859
_cell_angle_beta                    89.8457
_cell_angle_gamma                   89.5585

loop_
_atom_site_label
_atom_site_type_symbol
_atom_site_fract_x
_atom_site_fract_y
_atom_site_fract_z
_atom_site_charge
  Ge     Ge        0.052090000000021    0.000000000000000    0.372269999999958  0.0000
  Ge     Ge        0.447266263848534    0.031296123947066    0.352085105806752  0.0000
  Ge     Ge        0.944715158103471    0.998559625274208    0.625355999925782  0.0000
  Ge     Ge        0.550307799387656    0.028735378337706    0.093250900580053  0.0000
  Ge     Ge        0.945612361096591    0.998915931128013    0.124199604590048  0.0000
  Ge     Ge        0.445090281269456    0.021471367751901    0.842484987063049  0.0000
  Ge     Ge        0.051875189331833    0.999022737216501    0.877453267962274  0.0000
  Ge     Ge        0.169251997927360    0.289612920092789    0.264698305760140  0.0000
  Ge     Ge        0.327573885058767    0.754495207442724    0.264446170220714  0.0000
  Ge     Ge        0.826417261740054    0.290806082540902    0.691661768787790  0.0000
  Ge     Ge        0.666823422217020    0.752703576226829    0.707164356244141  0.0000
  Ge     Ge        0.645726505069093    0.347170870638529    0.695807604276927  0.0000
  Ge     Ge        0.347254753267328    0.343242986517019    0.271967401541208  0.0000
  Ge     Ge        0.646892414079669    0.345029053946229    0.010092887182745  0.0000
  Ge     Ge        0.850911280618906    0.685494690716727    0.007823845801554  0.0000
  Ge     Ge        0.151345776321906    0.680221403663638    0.947696843320853  0.0000
  Ge     Ge        0.329384115091167    0.737819615675323    0.952962814718419  0.0000
  Ge     Ge        0.174129226880450    0.272862499703075    0.952024704148031  0.0000
  Ge     Ge        0.673843116903888    0.750615428023208    0.022306221987448  0.0000
  Ge     Ge        0.825374616229897    0.274733113398513    0.003307268917683  0.0000
  Si     Si        0.550208442868944    0.039086803858321    0.596750897003745  0.0000
  Si     Si        0.842627578538066    0.692882292037497    0.699347187685035  0.0000
  Si     Si        0.152736707695661    0.694073892929463    0.255257066703059  0.0000
  Si     Si        0.349157179809628    0.330139624163698    0.964285622093014  0.0000
  O1     O1        0.113943087679376    0.166236529112243    0.360397467695037  0.0000
  O1     O1        0.373680444399672    0.890766639617218    0.365920709703167  0.0000
  O1     O1        0.880710001584011    0.159822132845455    0.595343833936578  0.0000
  O3     O3        0.618185144091373    0.910585983345930    0.628326955371067  0.0000
  O3     O3        0.899460585158354    0.802634876184003    0.614603329221783  0.0000
  O3     O3        0.580937367491739    0.231300345350256    0.607941598161416  0.0000
  O3     O3        0.092952277303842    0.803598867345413    0.336389554630212  0.0000
  O1     O1        0.411348226467103    0.235166995007704    0.363455484012576  0.0000
  O1     O1        0.022195808534411    0.997678790012158    0.529586207258252  0.0000
  O3     O3        0.522425918468629    0.000988829974516    0.452181380124765  0.0000
  O1     O1        0.972559513429628    0.023148443216663    0.281731482174060  0.0000
  O1     O1        0.479446651030312    0.994146579481154    0.197742823174634  0.0000
  O1     O1        0.977849851108012    0.032492976801237    0.779303189022667  0.0000
  O3     O3        0.476948196811035    0.016350347030750    0.685072013419693  0.0000
  O1     O1        0.583770312454999    0.234556587083712    0.101164860536633  0.0000
  O1     O1        0.920274505086243    0.790539465443673    0.087412287071393  0.0000
  O3     O3        0.408790821927626    0.222794594784905    0.880778230889019  0.0000
  O1     O1        0.085045664946226    0.791639786083383    0.864478172816914  0.0000
  O1     O1        0.379076420919927    0.863223395373591    0.850583851612568  0.0000
  O1     O1        0.128144753473590    0.131412669821329    0.855568458741210  0.0000
  O1     O1        0.624766510595500    0.890205201735951    0.117213439368309  0.0000
  O1     O1        0.869925832096785    0.130994745531395    0.099342818796168  0.0000
  O1     O1        0.519377821671860    0.981310692716307    0.939644405969570  0.0000
  O1     O1        0.021392395476731    0.048546022945856    0.031333824811258  0.0000
  O3     O3        0.162599814688081    0.504757020596552    0.311783286425600  0.0000
  O1     O1        0.342065672888272    0.550863791696254    0.321919552372708  0.0000
  O3     O3        0.834478739034545    0.502578852795138    0.642106270298039  0.0000
  O1     O1        0.649299674874876    0.554003006887615    0.640870925881483  0.0000
  O1     O1        0.262611135439810    0.239969234103417    0.280976017191448  0.0000
  O3     O3        0.231830560208903    0.793551249119449    0.258976699430668  0.0000
  O1     O1        0.732293105409247    0.249177966016490    0.684368622242186  0.0000
  O3     O3        0.762416986155779    0.790404987513599    0.700498464761006  0.0000
  O1     O1        0.141925152840247    0.262336457761835    0.108308692530184  0.0000
  O1     O1        0.359312572733051    0.771095380951484    0.108165032044776  0.0000
  O1     O1        0.856945893644416    0.262516249374456    0.846791101111930  0.0000
  O1     O1        0.641862793896040    0.753395894847571    0.865604376452539  0.0000
  O3     O3        0.873085672975312    0.679523732786334    0.844820015385249  0.0000
  O1     O1        0.615799038641578    0.352983470006881    0.853091892774356  0.0000
  O3     O3        0.124593041309623    0.677583853701247    0.108928950898836  0.0000
  O3     O3        0.376598799351749    0.337839724734932    0.111653586219535  0.0000
  O1     O1        0.660514403074604    0.543496684374378    0.075106886484713  0.0000
  O1     O1        0.841502410915650    0.480183395711831    0.060548416976286  0.0000
  O3     O3        0.339674186934582    0.521528626948446    0.911756176283844  0.0000
  O1     O1        0.157992864027965    0.474905481022728    0.891943963513514  0.0000
  O1     O1        0.731148698134968    0.235312584446376    0.003303828278562  0.0000
  O1     O1        0.767550286863811    0.795086507691174    0.026952684060855  0.0000
  O3     O3        0.269663379400133    0.233045285856206    0.957618373787358  0.0000
  O1     O1        0.235843636625980    0.783781039899771    0.939254957901161  0.0000
