data_c00896.vasp
_audit_creation_method             Generated by GULP
_audit_author_name                 Salvador R. G. Balestra
_symmetry_space_group_name_H-M     'P 1             '
_symmetry_Int_Tables_number        1

loop_
_symmetry_equiv_pos_site_id
_symmetry_equiv_pos_as_xyz
_cell_length_a                       17.6028
_cell_length_b                        7.8012
_cell_length_c                       10.2037
_cell_angle_alpha                   90.3471
_cell_angle_beta                    89.8556
_cell_angle_gamma                   91.2857

loop_
_atom_site_label
_atom_site_type_symbol
_atom_site_fract_x
_atom_site_fract_y
_atom_site_fract_z
_atom_site_charge
  Ge     Ge        0.052090000000021    0.000000000000000    0.372269999999958  0.0000
  Ge     Ge        0.452978911695485    0.048189120259146    0.411563222121240  0.0000
  Ge     Ge        0.943157178413379    0.048180192053296    0.618494792774670  0.0000
  Ge     Ge        0.559285433758950    0.009123269584769    0.159249718108844  0.0000
  Ge     Ge        0.954586558652907    0.070504616101357    0.111800630174446  0.0000
  Ge     Ge        0.454933417899000    0.065257924970433    0.905671546257712  0.0000
  Ge     Ge        0.058695975575706    0.002042828878481    0.857036169450102  0.0000
  Ge     Ge        0.177989582262022    0.279531522945384    0.295363874920187  0.0000
  Ge     Ge        0.329703600818230    0.767397607881596    0.300778564663730  0.0000
  Ge     Ge        0.653673065374702    0.689944596725734    0.721455561722523  0.0000
  Ge     Ge        0.671685037324520    0.290248441361138    0.736106685420778  0.0000
  Ge     Ge        0.149051656024460    0.684318087267920    0.299911847724639  0.0000
  Ge     Ge        0.358890855915067    0.362831072369849    0.293503424397491  0.0000
  Ge     Ge        0.674773786936338    0.306320863640212    0.051956433690866  0.0000
  Ge     Ge        0.828693912512191    0.785993505940129    0.036830446088516  0.0000
  Ge     Ge        0.358534976029156    0.378111350224252    0.975310391872914  0.0000
  Ge     Ge        0.150554755652509    0.691697422131535    0.982070220195782  0.0000
  Ge     Ge        0.330324700669059    0.781295452397099    0.983757361335000  0.0000
  Ge     Ge        0.179738921526487    0.285038522079501    0.977698536728357  0.0000
  Ge     Ge        0.855571749600929    0.380597210115400    0.050028883804993  0.0000
  Si     Si        0.557505733615183    0.001394592014147    0.659001862863605  0.0000
  Si     Si        0.851114725976857    0.358875676595016    0.741332063144232  0.0000
  Si     Si        0.830731262866303    0.755234416127223    0.726861701195928  0.0000
  Si     Si        0.653050968042415    0.703568063400219    0.035056308530020  0.0000
  O1     O1        0.127552660751648    0.141548933314688    0.393562562128276  0.0000
  O1     O1        0.375691853084306    0.912809880206645    0.400492444158427  0.0000
  O3     O3        0.906470966002877    0.247713919668365    0.651507606186764  0.0000
  O3     O3        0.589577479291798    0.811728447725712    0.637075349533738  0.0000
  O3     O3        0.878047025635886    0.879950948459601    0.632650535609010  0.0000
  O3     O3        0.626846129971194    0.137174179120007    0.639133546715934  0.0000
  O1     O1        0.084675329631664    0.796172143559405    0.392109256167394  0.0000
  O1     O1        0.426521515187558    0.253264690960953    0.377565306126654  0.0000
  O1     O1        0.971890999186607    0.048205201745160    0.456804954586095  0.0000
  O3     O3        0.485117851576363    0.040996614194348    0.572916388082815  0.0000
  O1     O1        0.027825688833386    0.017146485318661    0.207623003718269  0.0000
  O1     O1        0.528058403147653    0.985608534639708    0.317401080021505  0.0000
  O1     O1        0.026522585779458    0.011032677530080    0.698030637997617  0.0000
  O3     O3        0.531969492724048    0.016728943809557    0.811065017861494  0.0000
  O1     O1        0.628154659426563    0.168145262331358    0.154745780931915  0.0000
  O1     O1        0.875849615792669    0.934246172797233    0.127805924159181  0.0000
  O1     O1        0.422191369224012    0.268527370682943    0.881129256758955  0.0000
  O1     O1        0.084941729997972    0.796181658720902    0.891030474350255  0.0000
  O1     O1        0.380252000590088    0.921411292730370    0.887236619945800  0.0000
  O1     O1        0.135249182807245    0.139683940958260    0.876875039557204  0.0000
  O3     O3        0.589374565968453    0.809297513103306    0.108207635517132  0.0000
  O1     O1        0.921917194027540    0.274630725876139    0.138211333330093  0.0000
  O1     O1        0.482720235926156    0.062803722191799    0.067414737359384  0.0000
  O1     O1        0.982950952819970    0.059601500850247    0.950698746483482  0.0000
  O1     O1        0.163059695620247    0.483303102180695    0.356986992348731  0.0000
  O1     O1        0.344559663695538    0.563289099370245    0.357792469578796  0.0000
  O2     O2        0.841542975331173    0.553913145921051    0.688686870784714  0.0000
  O1     O1        0.652958904004099    0.484567323153867    0.664771009093362  0.0000
  O1     O1        0.274092465894345    0.246348250725312    0.296402317652917  0.0000
  O1     O1        0.233809749563377    0.800369764064292    0.299321797642638  0.0000
  O3     O3        0.768891796597456    0.264570081807212    0.741035303830966  0.0000
  O3     O3        0.741884833901597    0.791580944346170    0.712493587532002  0.0000
  O1     O1        0.145874397410688    0.265763931065019    0.135677046283001  0.0000
  O1     O1        0.363039464362089    0.791893803589463    0.142816529593551  0.0000
  O3     O3        0.884118657402821    0.372207375226993    0.886178231479287  0.0000
  O3     O3        0.629707388589276    0.668816860062080    0.885015089064252  0.0000
  O3     O3        0.858738532345251    0.792164426165938    0.874240625145689  0.0000
  O1     O1        0.640531916177040    0.275130712694799    0.895466932290008  0.0000
  O1     O1        0.118383334868440    0.669320669336235    0.140141228261027  0.0000
  O1     O1        0.388612059098242    0.394741208277213    0.135513274063888  0.0000
  O3     O3        0.663614602110835    0.519189453705108    0.100550215702540  0.0000
  O1     O1        0.848842147513724    0.587438171871723    0.099573454041980  0.0000
  O1     O1        0.343845776765106    0.578515303848289    0.918583345208302  0.0000
  O1     O1        0.165378721359830    0.490257604657626    0.921424456403976  0.0000
  O1     O1        0.770023773692531    0.270989864005536    0.058644432648791  0.0000
  O3     O3        0.731688619301621    0.814463291061934    0.040109714581147  0.0000
  O1     O1        0.275648183883535    0.255195582897892    0.979631572274377  0.0000
  O1     O1        0.234236582872249    0.812262046287826    0.983761909281079  0.0000
