data_c00846.vasp
_audit_creation_method             Generated by GULP
_audit_author_name                 Salvador R. G. Balestra
_symmetry_space_group_name_H-M     'P 1             '
_symmetry_Int_Tables_number        1

loop_
_symmetry_equiv_pos_site_id
_symmetry_equiv_pos_as_xyz
_cell_length_a                       17.6729
_cell_length_b                        7.8039
_cell_length_c                       10.1409
_cell_angle_alpha                   88.1294
_cell_angle_beta                    90.9291
_cell_angle_gamma                   90.8933

loop_
_atom_site_label
_atom_site_type_symbol
_atom_site_fract_x
_atom_site_fract_y
_atom_site_fract_z
_atom_site_charge
  Ge     Ge        0.052090000000021    0.000000000000000    0.372269999999958  0.0000
  Ge     Ge        0.443156835332837    0.047726290987063    0.366836342102474  0.0000
  Ge     Ge        0.943503157351602    0.066642655107472    0.614146579565001  0.0000
  Ge     Ge        0.550061472339441    0.008878498092887    0.119099764060290  0.0000
  Ge     Ge        0.942473765779066    0.065423144290685    0.123359709174153  0.0000
  Ge     Ge        0.444541277903020    0.081032590298431    0.864091387379687  0.0000
  Ge     Ge        0.047392578777569    0.014264196288684    0.874447386364219  0.0000
  Ge     Ge        0.172660547629525    0.286033715268006    0.254545399004565  0.0000
  Ge     Ge        0.325228501978428    0.759559492579355    0.260322612709398  0.0000
  Ge     Ge        0.843684540087812    0.381944433951874    0.676037820222054  0.0000
  Ge     Ge        0.819458229234109    0.782879078151632    0.679554183477985  0.0000
  Ge     Ge        0.661822889726803    0.313543668486307    0.686119208817004  0.0000
  Ge     Ge        0.144672195434893    0.689103883546071    0.256798836914436  0.0000
  Ge     Ge        0.669935540662112    0.296463629497994    0.005785256618841  0.0000
  Ge     Ge        0.820103949365930    0.786265297558668    0.001497334561838  0.0000
  Ge     Ge        0.344812250199244    0.387865554865544    0.927746030549163  0.0000
  Ge     Ge        0.323482869135987    0.790245188950041    0.942710213633508  0.0000
  Ge     Ge        0.167245189866277    0.308069495636653    0.935317502857628  0.0000
  Ge     Ge        0.642419594544863    0.700706096979623    0.998378735674915  0.0000
  Ge     Ge        0.848993210119974    0.380971396393964    0.998049708528322  0.0000
  Si     Si        0.547310032026101    0.023617300827074    0.620296110485079  0.0000
  Si     Si        0.642780026097959    0.708703709331366    0.683552594033003  0.0000
  Si     Si        0.348872366894681    0.362350318825650    0.244360561248321  0.0000
  Si     Si        0.148169432065219    0.706421264511896    0.942940827201358  0.0000
  O1     O1        0.130611982429197    0.127916642874713    0.348522914014887  0.0000
  O1     O1        0.373224555824833    0.894671164595146    0.362393385094494  0.0000
  O1     O1        0.908081190676935    0.269092133395455    0.590046840266815  0.0000
  O2     O2        0.583116983489216    0.834203005033580    0.606331967615584  0.0000
  O1     O1        0.868321509808718    0.929036909967266    0.584709785226689  0.0000
  O3     O3        0.609708708704370    0.171845326163327    0.591445046166186  0.0000
  O1     O1        0.076324790880538    0.793627973439946    0.339080102517582  0.0000
  O3     O3        0.412028018534493    0.250503913194914    0.320275010949749  0.0000
  O1     O1        0.023859243076877    0.019931365824969    0.533101193606078  0.0000
  O3     O3        0.473667985886284    0.051493363428275    0.530814288249148  0.0000
  O1     O1        0.972055359073132    0.060234933352431    0.285631475651519  0.0000
  O1     O1        0.521003573635212    0.997063430700632    0.279625923815136  0.0000
  O1     O1        0.968453421255442    0.040455443330740    0.779707025932564  0.0000
  O3     O3        0.521389714269114    0.035952879483520    0.771853606986485  0.0000
  O1     O1        0.626934046251819    0.144566761095810    0.104790444899584  0.0000
  O1     O1        0.866749853457610    0.929684023461454    0.098113616200165  0.0000
  O1     O1        0.409681834675563    0.283950344903770    0.838086460746642  0.0000
  O3     O3        0.090010232355509    0.817113217814069    0.854600783935832  0.0000
  O1     O1        0.369793231602388    0.938905192477781    0.846707130598739  0.0000
  O1     O1        0.111207230192787    0.179219634501133    0.841313352882061  0.0000
  O1     O1        0.572035070065768    0.804810008487324    0.072881754876356  0.0000
  O1     O1        0.917869192121490    0.273166830615043    0.084494057596811  0.0000
  O1     O1        0.474421812774996    0.078178995237629    0.026279227033437  0.0000
  O1     O1        0.019900481078410    0.008913575241547    0.036472914778026  0.0000
  O1     O1        0.152546669594655    0.482044667995269    0.316836682831949  0.0000
  O3     O3        0.338888642078693    0.546049054223352    0.309000029379681  0.0000
  O1     O1        0.835142832391962    0.586379980146803    0.613932988823090  0.0000
  O3     O3        0.648201380107316    0.522652857686310    0.622029504718024  0.0000
  O3     O3        0.269538525433878    0.257031974047131    0.250944556032404  0.0000
  O1     O1        0.230020162330709    0.795617406931970    0.269961479529050  0.0000
  O1     O1        0.756914631031218    0.276414304747669    0.676285666641794  0.0000
  O3     O3        0.722588143444133    0.810827069673180    0.680292747857528  0.0000
  O1     O1        0.138781510444646    0.273994532452408    0.095418364454595  0.0000
  O1     O1        0.356968185951945    0.801002626296974    0.102913920901912  0.0000
  O1     O1        0.875110902311536    0.401571151150420    0.836175432234328  0.0000
  O3     O3        0.619203470969385    0.671130838913517    0.833753432468552  0.0000
  O1     O1        0.849864543374936    0.799760925718485    0.840904519424257  0.0000
  O1     O1        0.634432663983966    0.286209552308870    0.846743519905269  0.0000
  O3     O3        0.119217038307687    0.674264184967850    0.091699932016425  0.0000
  O3     O3        0.370838009802845    0.400237980275377    0.093505886779442  0.0000
  O1     O1        0.654713222857435    0.498193785158360    0.064284652084924  0.0000
  O1     O1        0.836253212814574    0.579447241705522    0.059924219773245  0.0000
  O1     O1        0.337756026968761    0.594971411461643    0.873443134966689  0.0000
  O3     O3        0.159782172914601    0.522415723647378    0.882285910094550  0.0000
  O1     O1        0.765490082061470    0.263932590661021    0.003319603613178  0.0000
  O1     O1        0.724569930886196    0.820707062419395    0.008297003238432  0.0000
  O1     O1        0.261691495763886    0.269525091785601    0.921213344951677  0.0000
  O3     O3        0.226520972600016    0.816064729248824    0.950870666060579  0.0000
