data_c00805.vasp
_audit_creation_method             Generated by GULP
_audit_author_name                 Salvador R. G. Balestra
_symmetry_space_group_name_H-M     'P 1             '
_symmetry_Int_Tables_number        1

loop_
_symmetry_equiv_pos_site_id
_symmetry_equiv_pos_as_xyz
_cell_length_a                       17.6813
_cell_length_b                        7.8026
_cell_length_c                       10.1928
_cell_angle_alpha                   89.4470
_cell_angle_beta                    90.1603
_cell_angle_gamma                   89.3940

loop_
_atom_site_label
_atom_site_type_symbol
_atom_site_fract_x
_atom_site_fract_y
_atom_site_fract_z
_atom_site_charge
  Ge     Ge        0.052090000000021    0.000000000000000    0.372269999999958  0.0000
  Ge     Ge        0.451300428222835    0.959355081212452    0.350510838086276  0.0000
  Ge     Ge        0.946428943295388    0.967378548771933    0.631366052159405  0.0000
  Ge     Ge        0.556969878062582    0.028999640018448    0.096121823383514  0.0000
  Ge     Ge        0.949633375697407    0.969593240331679    0.119191578676564  0.0000
  Ge     Ge        0.451478901114018    0.974439999992737    0.841759582118374  0.0000
  Ge     Ge        0.057965373630214    0.032268693874643    0.876848822369999  0.0000
  Ge     Ge        0.148349326611068    0.317896569359047    0.253326277976478  0.0000
  Ge     Ge        0.354598505140404    0.644731141241321    0.275480796808216  0.0000
  Ge     Ge        0.827749319175865    0.259801707455960    0.700824031842661  0.0000
  Ge     Ge        0.672255255055249    0.732610955891753    0.698386336144714  0.0000
  Ge     Ge        0.645589952727173    0.329130192840879    0.710952950164300  0.0000
  Ge     Ge        0.175952114299407    0.721505710924796    0.269063734415846  0.0000
  Ge     Ge        0.327840758851116    0.237743927269825    0.264709861752709  0.0000
  Ge     Ge        0.653753144768692    0.345608633099143    0.029154869741407  0.0000
  Ge     Ge        0.334233349857384    0.265678625605975    0.947999512125542  0.0000
  Ge     Ge        0.181230310684824    0.746038467451595    0.951128642795832  0.0000
  Ge     Ge        0.155817591537754    0.347258740429530    0.932938885632654  0.0000
  Ge     Ge        0.681595653927971    0.747057337045132    0.022301363880577  0.0000
  Ge     Ge        0.834319888121043    0.268830425623602    0.015114827056849  0.0000
  Si     Si        0.554466399255966    0.016866497968993    0.596134475039523  0.0000
  Si     Si        0.845357339929986    0.654437182550490    0.689483648969492  0.0000
  Si     Si        0.853946182687305    0.665381845054553    0.002043027095551  0.0000
  Si     Si        0.356946313522838    0.666374134429628    0.963871756605678  0.0000
  O1     O1        0.078543345566350    0.204410387270855    0.328972484960413  0.0000
  O1     O1        0.420026814754509    0.753095996342537    0.366747785715378  0.0000
  O1     O1        0.876258166028748    0.117419608518951    0.604770976400738  0.0000
  O3     O3        0.625845079497525    0.890327044287698    0.610497368704561  0.0000
  O3     O3        0.910902454296941    0.760546407458938    0.620559189919846  0.0000
  O3     O3        0.577810882334312    0.208784770859123    0.632704058810475  0.0000
  O1     O1        0.127680908946731    0.862457345612046    0.365533276302205  0.0000
  O1     O1        0.375497347892150    0.096905335082006    0.365111248274954  0.0000
  O1     O1        0.022139415297124    0.999348667565537    0.532930417290408  0.0000
  O3     O3        0.527626720132452    0.012085937914336    0.445325032729088  0.0000
  O1     O1        0.976343641902735    0.935693749314395    0.279537968075292  0.0000
  O1     O1        0.481959873797366    0.979821243351466    0.190072624184056  0.0000
  O1     O1        0.979910476681864    0.982229285353025    0.789679165779720  0.0000
  O3     O3        0.483120979553751    0.954961043795877    0.681243799077540  0.0000
  O1     O1        0.591500696571965    0.231213810049808    0.122294300140679  0.0000
  O3     O3        0.923600270739115    0.773373070109806    0.052532327856135  0.0000
  O1     O1        0.383595433590531    0.132485531722838    0.846510203847978  0.0000
  O1     O1        0.134311703153982    0.895090119134405    0.858459468982309  0.0000
  O3     O3        0.418600572662770    0.773424463795833    0.884865343339328  0.0000
  O1     O1        0.091488355018534    0.234561050336626    0.843741801639781  0.0000
  O1     O1        0.633445871899347    0.890927921421716    0.114122154999442  0.0000
  O1     O1        0.881045670828710    0.126176637442851    0.115343544731354  0.0000
  O1     O1        0.528413282137509    0.022783083246606    0.934014782997798  0.0000
  O1     O1        0.029907060281597    0.031000221447238    0.039190182716898  0.0000
  O1     O1        0.161034295143260    0.515018044674312    0.323494928735297  0.0000
  O1     O1        0.342294234455025    0.440033870467811    0.327924067063366  0.0000
  O3     O3        0.840461079384089    0.464395017483486    0.633816780567438  0.0000
  O1     O1        0.650339009028443    0.531817705755371    0.643494719345854  0.0000
  O1     O1        0.232450145963787    0.201922879214601    0.260811565259393  0.0000
  O1     O1        0.271246551097238    0.759354121556698    0.278909880359859  0.0000
  O1     O1        0.732191100789747    0.226119891999182    0.702976576785896  0.0000
  O3     O3        0.768037361090003    0.762068899629500    0.672053929859970  0.0000
  O1     O1        0.126400297222397    0.362971779404877    0.093397027673688  0.0000
  O3     O3        0.383996478646415    0.636960642780060    0.112860810379076  0.0000
  O1     O1        0.864022506777651    0.235017100079868    0.856916054987467  0.0000
  O1     O1        0.651726257857719    0.756116126086197    0.861386279368458  0.0000
  O2     O2        0.857194913371996    0.624933799448483    0.846488247139484  0.0000
  O1     O1        0.620298032320345    0.359765205397657    0.870293893528447  0.0000
  O1     O1        0.146864637867142    0.750817104787440    0.108701013343882  0.0000
  O1     O1        0.363132990227788    0.228147010844177    0.106850013611129  0.0000
  O1     O1        0.664747630371684    0.546677005895463    0.087822554583930  0.0000
  O3     O3        0.851076264036661    0.477958793945833    0.067702298088473  0.0000
  O3     O3        0.345897577901982    0.479764720066442    0.902039408682582  0.0000
  O1     O1        0.166287006586672    0.551312574403650    0.876796699741816  0.0000
  O1     O1        0.739014091820476    0.236494077286149    0.021750362617433  0.0000
  O3     O3        0.778636896963862    0.777568882856874    0.030021037093368  0.0000
  O1     O1        0.239360610833830    0.230615672586874    0.935454545602121  0.0000
  O3     O3        0.278326646548793    0.774442804158793    0.960599977933728  0.0000
