data_c00895.vasp
_audit_creation_method             Generated by GULP
_audit_author_name                 Salvador R. G. Balestra
_symmetry_space_group_name_H-M     'P 1             '
_symmetry_Int_Tables_number        1

loop_
_symmetry_equiv_pos_site_id
_symmetry_equiv_pos_as_xyz
_cell_length_a                       17.8329
_cell_length_b                        7.8459
_cell_length_c                       10.3199
_cell_angle_alpha                   89.7210
_cell_angle_beta                    89.7200
_cell_angle_gamma                   89.4646

loop_
_atom_site_label
_atom_site_type_symbol
_atom_site_fract_x
_atom_site_fract_y
_atom_site_fract_z
_atom_site_charge
  Ge     Ge        0.052090000000021    0.000000000000000    0.372269999999958  0.0000
  Ge     Ge        0.453174765308313    0.958087044010368    0.380523489159125  0.0000
  Ge     Ge        0.946905017541477    0.979325642447299    0.630257789622312  0.0000
  Ge     Ge        0.561852083733108    0.957832913410588    0.129703737207169  0.0000
  Ge     Ge        0.950581577547456    0.978112031981588    0.117655841083257  0.0000
  Ge     Ge        0.458137987578312    0.960695028765069    0.874696416632177  0.0000
  Ge     Ge        0.059234259323179    0.990166421159816    0.874827910574139  0.0000
  Ge     Ge        0.153216911546163    0.307407129032375    0.263969743885051  0.0000
  Ge     Ge        0.354747395922650    0.650459647308938    0.266892826130109  0.0000
  Ge     Ge        0.656953970468813    0.655500647965222    0.697269248929936  0.0000
  Ge     Ge        0.670597176569663    0.252780372004017    0.692389223155064  0.0000
  Ge     Ge        0.175864670954271    0.713676478483404    0.259299479069178  0.0000
  Ge     Ge        0.332306668210004    0.241405308001633    0.266604121256734  0.0000
  Ge     Ge        0.679269322698330    0.237128148675023    0.009680818640976  0.0000
  Ge     Ge        0.836758808709050    0.687344572019126    0.001537485442603  0.0000
  Ge     Ge        0.335897987356357    0.238564248545609    0.951810914231149  0.0000
  Ge     Ge        0.180930609981512    0.709065069131643    0.942619242440190  0.0000
  Ge     Ge        0.359509103293384    0.646254218973681    0.950639893027015  0.0000
  Ge     Ge        0.157016317032835    0.305000094364485    0.948000430626674  0.0000
  Ge     Ge        0.656982556967932    0.643896741427387    0.014406567911343  0.0000
  Si     Si        0.559016329000334    0.967608627914480    0.623897060377186  0.0000
  Si     Si        0.847540640848116    0.293409556749508    0.692458780905234  0.0000
  Si     Si        0.835397794990612    0.689198495639405    0.696049840512733  0.0000
  Si     Si        0.853675696811592    0.283121026417158    0.995605961456516  0.0000
  O1     O1        0.087432248949106    0.201024330553231    0.353349352886435  0.0000
  O1     O1        0.418975768849293    0.757448031069651    0.357897730052665  0.0000
  O3     O3        0.903640811267762    0.178331007175208    0.609133013632738  0.0000
  O3     O3        0.600444174694580    0.786643527137377    0.604466153871325  0.0000
  O3     O3        0.882828206097305    0.815671876746093    0.606235485260232  0.0000
  O3     O3        0.619723732739151    0.114709182976263    0.598443047081674  0.0000
  O1     O1        0.123439833405789    0.856316463860983    0.345315253405592  0.0000
  O1     O1        0.381620856822244    0.102510666645464    0.362607036340482  0.0000
  O1     O1        0.022013037266298    0.968156498541932    0.529341314729650  0.0000
  O3     O3        0.485364067724676    0.980601885816999    0.538291246354390  0.0000
  O1     O1        0.973853863555741    0.975443753446623    0.278305640583862  0.0000
  O1     O1        0.529910787960918    0.991640364356535    0.283968277242549  0.0000
  O1     O1        0.981464789115434    0.959234615783483    0.784162788440039  0.0000
  O3     O3        0.533451961790257    0.988481336700339    0.773447049932178  0.0000
  O1     O1        0.637379054811975    0.087886535265887    0.103252531541037  0.0000
  O1     O1        0.888576487290779    0.814824711937598    0.097741858687097  0.0000
  O1     O1        0.385212394898846    0.103190132555552    0.853700129223313  0.0000
  O1     O1        0.131112556116891    0.845954886032540    0.846839010681325  0.0000
  O1     O1        0.424384826927141    0.757455287844335    0.862130494170425  0.0000
  O1     O1        0.095238846937140    0.190955441931247    0.856957160737971  0.0000
  O1     O1        0.592645644731302    0.751739731361451    0.106086723171385  0.0000
  O3     O3        0.915749311161049    0.177022059135617    0.071449212737869  0.0000
  O1     O1        0.488874946330025    0.003792228350952    0.028647932141431  0.0000
  O1     O1        0.032154152344448    0.951441198195685    0.033278224116277  0.0000
  O1     O1        0.163509479083457    0.510354234244094    0.320195004362036  0.0000
  O1     O1        0.343791159531423    0.446699129877836    0.322127162443584  0.0000
  O2     O2        0.845272683685576    0.491943519257815    0.648584978412602  0.0000
  O1     O1        0.652912381499911    0.454829905681922    0.635676419128400  0.0000
  O1     O1        0.238142858882978    0.199975344796356    0.270027388029553  0.0000
  O1     O1        0.270039338805936    0.757737773008694    0.268783560185514  0.0000
  O3     O3        0.765757134259169    0.212862770179259    0.679222382130406  0.0000
  O3     O3        0.747673607909697    0.734016450837563    0.693261764190233  0.0000
  O1     O1        0.124586309366871    0.313931031136159    0.105021845205339  0.0000
  O1     O1        0.387668260787008    0.645572188809533    0.109935540332846  0.0000
  O2     O2        0.874141698084767    0.284976330699111    0.842163348916108  0.0000
  O1     O1        0.627527881098413    0.650740145961183    0.855299147818823  0.0000
  O3     O3        0.865046380869507    0.710821645687808    0.841949349148190  0.0000
  O1     O1        0.647011958699924    0.235970483711414    0.853042035418370  0.0000
  O1     O1        0.149132588350087    0.714448657870679    0.100238385522186  0.0000
  O1     O1        0.365335319069630    0.227282102121936    0.110535237845799  0.0000
  O1     O1        0.662572323768535    0.438146116872307    0.068937836337389  0.0000
  O3     O3        0.848997671353279    0.475082535249977    0.046799408660434  0.0000
  O1     O1        0.349967137987517    0.443834423085891    0.895474429383299  0.0000
  O1     O1        0.169504459331743    0.504084609477198    0.885808102422196  0.0000
  O3     O3        0.774282621071874    0.191304487213201    0.012247872009351  0.0000
  O1     O1        0.743922407118105    0.736894720727491    0.018781322243038  0.0000
  O1     O1        0.241932336581606    0.197066379240088    0.950437359515364  0.0000
  O1     O1        0.274776330641334    0.753500865754807    0.942646487607298  0.0000
