data_c00880.vasp
_audit_creation_method             Generated by GULP
_audit_author_name                 Salvador R. G. Balestra
_symmetry_space_group_name_H-M     'P 1             '
_symmetry_Int_Tables_number        1

loop_
_symmetry_equiv_pos_site_id
_symmetry_equiv_pos_as_xyz
_cell_length_a                       17.5077
_cell_length_b                        7.8615
_cell_length_c                       10.2023
_cell_angle_alpha                   89.8810
_cell_angle_beta                    90.8441
_cell_angle_gamma                   87.6307

loop_
_atom_site_label
_atom_site_type_symbol
_atom_site_fract_x
_atom_site_fract_y
_atom_site_fract_z
_atom_site_charge
  Ge     Ge        0.052090000000021    0.000000000000000    0.372269999999958  0.0000
  Ge     Ge        0.446861545091354    0.948319716708786    0.406100699482122  0.0000
  Ge     Ge        0.943550237486327    0.943013146878523    0.616969164539070  0.0000
  Ge     Ge        0.554758196677708    0.997830385915996    0.158997722273294  0.0000
  Ge     Ge        0.952187653338191    0.930985328311189    0.112577384348899  0.0000
  Ge     Ge        0.449405191957353    0.936629159758027    0.902215171868613  0.0000
  Ge     Ge        0.055918747238445    0.993640242910073    0.862200598985128  0.0000
  Ge     Ge        0.149313290035719    0.310105109334387    0.297193603907550  0.0000
  Ge     Ge        0.356818507360786    0.631688564662061    0.290342661741961  0.0000
  Ge     Ge        0.666534906505178    0.702880335051894    0.725270338118197  0.0000
  Ge     Ge        0.851516039221171    0.627133698939435    0.728662599548591  0.0000
  Ge     Ge        0.646080487829811    0.305265818940932    0.722885800790895  0.0000
  Ge     Ge        0.173790510655410    0.709188588239638    0.296296112752003  0.0000
  Ge     Ge        0.644598690146833    0.309265811289537    0.041630740786158  0.0000
  Ge     Ge        0.856282975006164    0.619735215041609    0.044075546812997  0.0000
  Ge     Ge        0.327102112308173    0.230459061404983    0.978296357750188  0.0000
  Ge     Ge        0.351848174896024    0.628979901780137    0.974456183083010  0.0000
  Ge     Ge        0.144194472719955    0.310289568743345    0.981784823840131  0.0000
  Ge     Ge        0.673815478010500    0.708299694470515    0.042556920416569  0.0000
  Ge     Ge        0.825838562850106    0.221563523833702    0.042888078197506  0.0000
  Si     Si        0.550110573217778    0.996414741768327    0.654854862319354  0.0000
  Si     Si        0.826347029428980    0.234011570731345    0.731244566764334  0.0000
  Si     Si        0.329931139947180    0.236909332530935    0.288115806350462  0.0000
  Si     Si        0.171647623963794    0.705039587880280    0.985450469708303  0.0000
  O1     O1        0.090970811448735    0.194897483979482    0.393722030456260  0.0000
  O1     O1        0.419889963611052    0.743250366104618    0.383385335213327  0.0000
  O3     O3        0.870182958949836    0.089750445264900    0.647969901964565  0.0000
  O3     O3        0.616080976664384    0.852046504361330    0.629536907226563  0.0000
  O1     O1        0.912480334152696    0.740717629179862    0.635509986702734  0.0000
  O3     O3        0.585099659550233    0.180082829269401    0.633874863127473  0.0000
  O1     O1        0.125062538017984    0.848783576124222    0.394746078524260  0.0000
  O3     O3        0.371254201820854    0.091819977714490    0.376699143108457  0.0000
  O1     O1        0.970898678343516    0.968248605427744    0.456293330617269  0.0000
  O3     O3        0.474621370229689    0.970417570249052    0.569411136184176  0.0000
  O1     O1        0.027743807986164    0.979460086484264    0.207741390834979  0.0000
  O1     O1        0.525890452535744    0.991975141241668    0.318504184660240  0.0000
  O1     O1        0.027080614703893    0.977587224453683    0.701249555696834  0.0000
  O3     O3        0.526119419468143    0.978996283740085    0.807170129004499  0.0000
  O1     O1        0.577063659887010    0.203930695991914    0.124265206376090  0.0000
  O1     O1        0.919838567452287    0.729751323810994    0.137062113400944  0.0000
  O1     O1        0.375953600950095    0.086962858553662    0.884394300497557  0.0000
  O3     O3        0.131518176804584    0.850475367108273    0.895996584953780  0.0000
  O1     O1        0.409759961675759    0.742522562532681    0.876696119017847  0.0000
  O1     O1        0.081597821346103    0.200170598484295    0.887961453393662  0.0000
  O1     O1        0.633263234540676    0.862742317105248    0.138749091333829  0.0000
  O1     O1        0.875645567923093    0.074056007803783    0.133825224013809  0.0000
  O1     O1        0.480333485500347    0.934943667454120    0.062833822008215  0.0000
  O1     O1        0.977632243603180    0.946176390194521    0.950444541015034  0.0000
  O1     O1        0.156494436012583    0.509552934776698    0.356978902249012  0.0000
  O3     O3        0.346520789521965    0.424030688412147    0.344129346737463  0.0000
  O3     O3        0.841093093304371    0.420411027910836    0.672377071506648  0.0000
  O1     O1        0.649563500406552    0.505302277792714    0.659281067225711  0.0000
  O3     O3        0.239550590238899    0.210456546226060    0.285565866268782  0.0000
  O1     O1        0.269578418662443    0.739303147263832    0.300811246787546  0.0000
  O3     O3        0.736080904276145    0.204080337525272    0.727749059982366  0.0000
  O1     O1        0.762949951369895    0.730585163210725    0.723355968269638  0.0000
  O1     O1        0.112578149419733    0.314600109543575    0.139720944047803  0.0000
  O1     O1        0.387990605564866    0.624666166930719    0.132584549806509  0.0000
  O3     O3        0.856034399355245    0.224129706212452    0.880997048727178  0.0000
  O1     O1        0.636770250457133    0.716479756546641    0.884987682203412  0.0000
  O1     O1        0.887819569247659    0.614434806830224    0.884611619478765  0.0000
  O1     O1        0.615524948178413    0.328613781536615    0.880533947400007  0.0000
  O3     O3        0.141129450445142    0.717309054637094    0.133773521005882  0.0000
  O3     O3        0.360638821301486    0.221958024613926    0.140093225433285  0.0000
  O1     O1        0.657285048540366    0.508098687823501    0.104042865950357  0.0000
  O1     O1        0.844194373794689    0.421317509656350    0.104341370495663  0.0000
  O1     O1        0.344439012386296    0.428934572815174    0.915780801004339  0.0000
  O3     O3        0.153999108288172    0.518265515930005    0.928984105855641  0.0000
  O1     O1        0.730061449978786    0.191630964687362    0.048175551688344  0.0000
  O1     O1        0.770074074536106    0.733916203228755    0.036663102707886  0.0000
  O1     O1        0.231317339273952    0.201968135617660    0.973547759167480  0.0000
  O3     O3        0.262020690929572    0.729637738621833    0.987854222820122  0.0000
