data_c00845.vasp
_audit_creation_method             Generated by GULP
_audit_author_name                 Salvador R. G. Balestra
_symmetry_space_group_name_H-M     'P 1             '
_symmetry_Int_Tables_number        1

loop_
_symmetry_equiv_pos_site_id
_symmetry_equiv_pos_as_xyz
_cell_length_a                       17.6339
_cell_length_b                        7.8484
_cell_length_c                       10.1048
_cell_angle_alpha                   88.4802
_cell_angle_beta                    91.5805
_cell_angle_gamma                   88.3033

loop_
_atom_site_label
_atom_site_type_symbol
_atom_site_fract_x
_atom_site_fract_y
_atom_site_fract_z
_atom_site_charge
  Ge     Ge        0.052090000000021    0.000000000000000    0.372269999999958  0.0000
  Ge     Ge        0.445984327306656    0.947320597170356    0.382288061635397  0.0000
  Ge     Ge        0.937639784502327    0.962959456144908    0.608906760411731  0.0000
  Ge     Ge        0.551481985785953    0.991069447782650    0.128958074281455  0.0000
  Ge     Ge        0.954788094877627    0.932247328093028    0.109935754062273  0.0000
  Ge     Ge        0.442705806519048    0.951957836301390    0.871823580739815  0.0000
  Ge     Ge        0.053960578606207    0.010907836987226    0.854794265981967  0.0000
  Ge     Ge        0.151234956995401    0.312415531958115    0.302522501397160  0.0000
  Ge     Ge        0.351907704624343    0.635430006412810    0.301752958372330  0.0000
  Ge     Ge        0.819986853335733    0.249637734439200    0.722795607042339  0.0000
  Ge     Ge        0.841139374943044    0.648528097655835    0.728760802488327  0.0000
  Ge     Ge        0.636683704675572    0.317783863734143    0.740421090500538  0.0000
  Ge     Ge        0.171427198155727    0.713749983698060    0.299811227503029  0.0000
  Ge     Ge        0.648048292157625    0.303761027055472    0.057761646098477  0.0000
  Ge     Ge        0.853150489355494    0.624137699600746    0.055517851343031  0.0000
  Ge     Ge        0.326432596900465    0.246634254779383    0.987802496725407  0.0000
  Ge     Ge        0.173063063869458    0.721333382409746    0.979323683293698  0.0000
  Ge     Ge        0.144983783007800    0.321139340883895    0.979275507295345  0.0000
  Ge     Ge        0.675089796926831    0.702694705510169    0.061737198884833  0.0000
  Ge     Ge        0.828456485237332    0.222689980602216    0.041927378467129  0.0000
  Si     Si        0.547579724537191    0.003667059927766    0.632369195137112  0.0000
  Si     Si        0.663015398521551    0.710848515239872    0.743048233244113  0.0000
  Si     Si        0.328298721355329    0.237391331911876    0.301111871208218  0.0000
  Si     Si        0.351628979886430    0.644435262438534    0.990993723575478  0.0000
  O1     O1        0.090573365465147    0.195427219504236    0.395192607331076  0.0000
  O1     O1        0.411586995146785    0.746233084520995    0.402181635989827  0.0000
  O1     O1        0.864075330281664    0.106472384891580    0.623230408941421  0.0000
  O2     O2        0.614967343356164    0.867107787726474    0.672659130763751  0.0000
  O1     O1        0.905297368374371    0.763894823794223    0.644080525761357  0.0000
  O3     O3        0.573149079548490    0.195721034713956    0.652797797470393  0.0000
  O1     O1        0.122866235707040    0.846701069429607    0.400717094302903  0.0000
  O3     O3        0.374710422440021    0.102796634565502    0.396207162597046  0.0000
  O1     O1        0.968949374635552    0.966870905487811    0.448181449060557  0.0000
  O3     O3        0.525412713649683    0.983928404299123    0.478217629733498  0.0000
  O1     O1        0.030890589689646    0.983406115065296    0.204097382703626  0.0000
  O1     O1        0.475031991486869    0.955034713125588    0.220934922513486  0.0000
  O1     O1        0.020171400182237    0.009872879931001    0.693774190725885  0.0000
  O3     O3        0.471020400644857    0.962261897616585    0.708597233539915  0.0000
  O1     O1        0.589532653727906    0.187032981363019    0.154263486917479  0.0000
  O1     O1        0.923089419433528    0.728681146659012    0.137634224760061  0.0000
  O1     O1        0.373915700948670    0.107773118064125    0.891684224023975  0.0000
  O1     O1        0.133278231043827    0.879299889698351    0.878769939336543  0.0000
  O3     O3        0.408195184101906    0.750432486434851    0.901896892337994  0.0000
  O1     O1        0.077651849674282    0.215643305561240    0.891671961968792  0.0000
  O1     O1        0.623634899547134    0.839193328651208    0.153081557999752  0.0000
  O1     O1        0.879305448443764    0.072168675496451    0.132631289737469  0.0000
  O1     O1        0.522296301758574    0.985112557697700    0.964823410962385  0.0000
  O1     O1        0.980343456715508    0.941159306295832    0.946336136792977  0.0000
  O1     O1        0.159150972980753    0.510099176800133    0.363452592539131  0.0000
  O3     O3        0.341176367117458    0.427240333604336    0.354340352396947  0.0000
  O1     O1        0.834741150493562    0.451664791393039    0.661336606956996  0.0000
  O3     O3        0.642897271145612    0.528742966244394    0.681955750419766  0.0000
  O3     O3        0.239000245392904    0.203956112999420    0.299925003691367  0.0000
  O1     O1        0.266828216176360    0.746932564747324    0.301795549111647  0.0000
  O1     O1        0.724369691837659    0.220829061916616    0.728522078571751  0.0000
  O3     O3        0.751408367283166    0.747623645360453    0.725788037295293  0.0000
  O1     O1        0.118483483536888    0.331854957312500    0.141150301657811  0.0000
  O3     O3        0.384621662359630    0.631833920925353    0.141340066292722  0.0000
  O1     O1        0.858342234737708    0.220866377676868    0.880455780260375  0.0000
  O3     O3        0.644066298105578    0.702030655055391    0.897229335642468  0.0000
  O1     O1        0.872101140863929    0.618632211853010    0.889288235663153  0.0000
  O1     O1        0.608279850190674    0.323287646807558    0.899821237673093  0.0000
  O1     O1        0.138877340571170    0.732115778521441    0.136926957044890  0.0000
  O3     O3        0.357748082585028    0.222517741123210    0.151714985523832  0.0000
  O1     O1        0.663348640523327    0.497437311756488    0.122719767313426  0.0000
  O1     O1        0.844359855755549    0.419237511137517    0.110368591707821  0.0000
  O3     O3        0.341686761301294    0.456105910117452    0.936428162039281  0.0000
  O1     O1        0.152462296097418    0.525419722488535    0.917396613002764  0.0000
  O1     O1        0.732975003244074    0.191315481887727    0.041463021090243  0.0000
  O1     O1        0.769581334535432    0.742165637883494    0.069972545513138  0.0000
  O1     O1        0.231412614652215    0.213414679240846    0.973821290699837  0.0000
  O3     O3        0.270254499321668    0.743459265279704    0.990834414831948  0.0000
