data_c00887.vasp
_audit_creation_method             Generated by GULP
_audit_author_name                 Salvador R. G. Balestra
_symmetry_space_group_name_H-M     'P 1             '
_symmetry_Int_Tables_number        1

loop_
_symmetry_equiv_pos_site_id
_symmetry_equiv_pos_as_xyz
_cell_length_a                       17.6404
_cell_length_b                        7.8191
_cell_length_c                       10.0664
_cell_angle_alpha                   91.1748
_cell_angle_beta                    89.8314
_cell_angle_gamma                   91.3586

loop_
_atom_site_label
_atom_site_type_symbol
_atom_site_fract_x
_atom_site_fract_y
_atom_site_fract_z
_atom_site_charge
  Ge     Ge        0.052090000000021    0.000000000000000    0.372269999999958  0.0000
  Ge     Ge        0.444511147397755    0.054243218391716    0.394738144022824  0.0000
  Ge     Ge        0.940379144453699    0.029005849409605    0.620022075216902  0.0000
  Ge     Ge        0.547792150294885    0.990724281899915    0.136717220264784  0.0000
  Ge     Ge        0.951640910120044    0.057701887189960    0.114899089527595  0.0000
  Ge     Ge        0.445845157148178    0.040973296891153    0.877663412497193  0.0000
  Ge     Ge        0.056392675239959    0.994066708553645    0.859862532793036  0.0000
  Ge     Ge        0.171134831884686    0.291534795378925    0.302728938316992  0.0000
  Ge     Ge        0.323033026965803    0.770019622560472    0.309819427719242  0.0000
  Ge     Ge        0.641148266014037    0.667175506227744    0.738246106674790  0.0000
  Ge     Ge        0.824274605092455    0.733563332674811    0.729481529707907  0.0000
  Ge     Ge        0.667480395448062    0.266355287606314    0.743170178085760  0.0000
  Ge     Ge        0.352513600238772    0.368665336477269    0.314838989679751  0.0000
  Ge     Ge        0.671565977412390    0.277199027495651    0.067829223420862  0.0000
  Ge     Ge        0.826279781047509    0.767666186018430    0.048831872736740  0.0000
  Ge     Ge        0.356548189623593    0.364212055043906    0.994796902559147  0.0000
  Ge     Ge        0.150379213155281    0.685864177350834    0.987896398442487  0.0000
  Ge     Ge        0.174866682188920    0.282788238287106    0.982287751762863  0.0000
  Ge     Ge        0.647431289135336    0.680825876652267    0.060729404678360  0.0000
  Ge     Ge        0.848209352621522    0.363955297367360    0.061250578326128  0.0000
  Si     Si        0.550683757880719    0.975879804468201    0.630451468882645  0.0000
  Si     Si        0.844635753914925    0.339486349841303    0.741262300205095  0.0000
  Si     Si        0.147710745382620    0.688030683396752    0.304431806588593  0.0000
  Si     Si        0.327450002522137    0.761617773691257    0.993561573849921  0.0000
  O1     O1        0.120797271059499    0.155926303372542    0.402665474064683  0.0000
  O1     O1        0.368050201075735    0.915613646675346    0.411430776537723  0.0000
  O3     O3        0.907363453703082    0.227532820086373    0.667610541539214  0.0000
  O3     O3        0.574374746710977    0.782144085693762    0.653273469469969  0.0000
  O1     O1        0.872207556977560    0.870999318635788    0.627345497260611  0.0000
  O3     O3        0.622778378636492    0.099097760606660    0.659484501214255  0.0000
  O3     O3        0.087893299049060    0.796260990084505    0.389715855819879  0.0000
  O1     O1        0.412949545364095    0.258005149777883    0.414549342950352  0.0000
  O1     O1        0.970212571927339    0.034885957318883    0.456518133079749  0.0000
  O3     O3        0.524954364914581    0.001030433763495    0.478710868902029  0.0000
  O1     O1        0.028826819830873    0.015330081601412    0.205989253214090  0.0000
  O1     O1        0.469985829430703    0.029159184229784    0.229171356267653  0.0000
  O1     O1        0.024022741469572    0.986183210011988    0.699068850635682  0.0000
  O3     O3        0.475697512812616    0.025431908650137    0.713423858662174  0.0000
  O1     O1        0.618511840686720    0.143934711992069    0.163766223203731  0.0000
  O1     O1        0.877754509965816    0.913664394154870    0.140176602691028  0.0000
  O1     O1        0.419429939331536    0.249868463149688    0.901300330053649  0.0000
  O1     O1        0.084467644752360    0.792707198409302    0.902606719232134  0.0000
  O3     O3        0.370101766634618    0.901503334404171    0.905296090408577  0.0000
  O1     O1        0.132229458320499    0.133477350912549    0.879268817274022  0.0000
  O1     O1        0.585370972441701    0.792441869163293    0.157754163235639  0.0000
  O1     O1        0.917888149435202    0.261122307530054    0.141696634827370  0.0000
  O1     O1        0.522177267385310    0.994315580802223    0.971037798402499  0.0000
  O1     O1        0.978712086003616    0.052184215889644    0.950260955449924  0.0000
  O3     O3        0.159117560868330    0.501436621519900    0.361379628397766  0.0000
  O1     O1        0.341845383626961    0.572218615411356    0.372570068918886  0.0000
  O3     O3        0.836448062382703    0.523339031219228    0.674334728928863  0.0000
  O1     O1        0.646014287359889    0.460143873315572    0.676914466206646  0.0000
  O1     O1        0.266611652218689    0.258036395863376    0.307939883011334  0.0000
  O3     O3        0.226561056784139    0.798571773300557    0.307844261910080  0.0000
  O3     O3        0.764428063531593    0.235845301837029    0.734901589561586  0.0000
  O1     O1        0.728554527567455    0.767032145323331    0.727452960360926  0.0000
  O1     O1        0.140027407084503    0.265709091717689    0.141602283620518  0.0000
  O3     O3        0.354884827372819    0.777391453245726    0.146239753421189  0.0000
  O3     O3        0.867530228971162    0.380942246336739    0.892444001426810  0.0000
  O1     O1        0.613934781687075    0.652605460551768    0.900845469145022  0.0000
  O1     O1        0.858474760693110    0.772835982623245    0.886703695017216  0.0000
  O1     O1        0.639976073761600    0.262160751843457    0.905884317974737  0.0000
  O3     O3        0.121639698565497    0.666449304738208    0.151797339391200  0.0000
  O1     O1        0.388303751486190    0.373889826433116    0.155537690170259  0.0000
  O1     O1        0.662381911591676    0.485610754303493    0.125532554260730  0.0000
  O1     O1        0.838286341533854    0.568451008781221    0.117184407668055  0.0000
  O3     O3        0.345456521810411    0.570799299129706    0.939367285389663  0.0000
  O1     O1        0.157597806993358    0.483501020336017    0.923467727768682  0.0000
  O1     O1        0.766593185216157    0.239375319534814    0.074078550953265  0.0000
  O1     O1        0.730692042026543    0.801309024214811    0.048827830706611  0.0000
  O1     O1        0.270763717619403    0.256869324205534    0.988247112215259  0.0000
  O3     O3        0.237879680968395    0.792085592110869    0.985402751366685  0.0000
