data_c00877.vasp
_audit_creation_method             Generated by GULP
_audit_author_name                 Salvador R. G. Balestra
_symmetry_space_group_name_H-M     'P 1             '
_symmetry_Int_Tables_number        1

loop_
_symmetry_equiv_pos_site_id
_symmetry_equiv_pos_as_xyz
_cell_length_a                       17.6721
_cell_length_b                        7.7969
_cell_length_c                       10.1829
_cell_angle_alpha                   90.1396
_cell_angle_beta                    90.3533
_cell_angle_gamma                   90.7371

loop_
_atom_site_label
_atom_site_type_symbol
_atom_site_fract_x
_atom_site_fract_y
_atom_site_fract_z
_atom_site_charge
  Ge     Ge        0.052090000000021    0.000000000000000    0.372269999999958  0.0000
  Ge     Ge        0.447370988708048    0.043100346815248    0.410758927318904  0.0000
  Ge     Ge        0.941560519961976    0.048032525046717    0.615705561833771  0.0000
  Ge     Ge        0.558059985288283    0.008520654471689    0.165241528368902  0.0000
  Ge     Ge        0.951690225436097    0.066874810274739    0.112875560902411  0.0000
  Ge     Ge        0.451709150733238    0.060938200552222    0.910121640619958  0.0000
  Ge     Ge        0.054764531241916    0.002173661278165    0.859073262247734  0.0000
  Ge     Ge        0.176657754526582    0.278213066764847    0.296760893631512  0.0000
  Ge     Ge        0.329369463332627    0.752265307514229    0.304407442563460  0.0000
  Ge     Ge        0.645189391681256    0.690900258969786    0.726079754642801  0.0000
  Ge     Ge        0.825946751283419    0.753703882726148    0.722130549755963  0.0000
  Ge     Ge        0.667653435741592    0.285813360760274    0.737043612195292  0.0000
  Ge     Ge        0.148435191952802    0.680546253892688    0.306686228234361  0.0000
  Ge     Ge        0.672910043850415    0.303289608406334    0.054832455166024  0.0000
  Ge     Ge        0.827869490024899    0.782299277302781    0.038057598738502  0.0000
  Ge     Ge        0.352997517825769    0.372302331111093    0.978814582307158  0.0000
  Ge     Ge        0.149156379125429    0.692698116998575    0.987065841585430  0.0000
  Ge     Ge        0.327875444806652    0.778836896256755    0.987988788835807  0.0000
  Ge     Ge        0.176243804130621    0.284461677559555    0.977745683418208  0.0000
  Ge     Ge        0.850855745781152    0.378915270524263    0.052975877345927  0.0000
  Si     Si        0.551051082621778    0.003851812423692    0.659411444337951  0.0000
  Si     Si        0.844898783085194    0.355536860479684    0.738252229586636  0.0000
  Si     Si        0.353122257474408    0.354083806983707    0.291640801812155  0.0000
  Si     Si        0.652016229004875    0.704395028316546    0.037471524549112  0.0000
  O1     O1        0.129819116528280    0.133635162337183    0.392406194499517  0.0000
  O1     O1        0.377651976614663    0.889763030138368    0.406781613493115  0.0000
  O3     O3        0.905742904591399    0.244285766782341    0.660757476042376  0.0000
  O3     O3        0.580068223448040    0.810910444322641    0.638782264547248  0.0000
  O1     O1        0.875220818334318    0.886885613193884    0.619758427467098  0.0000
  O3     O3        0.621318919256532    0.135529709208005    0.640466565554153  0.0000
  O1     O1        0.083859553118854    0.795147723300689    0.395805906831730  0.0000
  O3     O3        0.414923066652142    0.244352354139000    0.369299299727246  0.0000
  O1     O1        0.973495811223115    0.058185760204043    0.455592046632081  0.0000
  O3     O3        0.479119721922272    0.051083448189097    0.573336423911830  0.0000
  O1     O1        0.026605531228072    0.015587742570961    0.207365890373628  0.0000
  O1     O1        0.525854534853438    0.990967449977612    0.323165376992941  0.0000
  O1     O1        0.023359572585548    0.001738349889233    0.699036030437076  0.0000
  O3     O3        0.527388964342472    0.019648542863984    0.812438780268719  0.0000
  O1     O1        0.624371524207574    0.171087231509392    0.158246096681562  0.0000
  O1     O1        0.874691258608779    0.929842710839387    0.131329038660793  0.0000
  O1     O1        0.419195444371972    0.266307543788116    0.889726338460503  0.0000
  O1     O1        0.082329204524311    0.797790950259719    0.897809002766737  0.0000
  O1     O1        0.377486459535100    0.917664496619033    0.891229523037483  0.0000
  O1     O1        0.129313204324246    0.143626164918701    0.877144893876853  0.0000
  O3     O3        0.593365240540376    0.810080086269042    0.122250880735072  0.0000
  O1     O1        0.919341334066472    0.272187724991245    0.136914543460843  0.0000
  O1     O1        0.480575968298234    0.050970623512703    0.071335070513824  0.0000
  O1     O1        0.978667886656290    0.059854338489477    0.950747014922541  0.0000
  O1     O1        0.158381552105820    0.476907263463878    0.363305612958681  0.0000
  O3     O3        0.341829262735864    0.540931457579966    0.355254949642745  0.0000
  O3     O3        0.835402882074480    0.541213113258434    0.672347189928459  0.0000
  O1     O1        0.648426132701738    0.484264228188361    0.671460171476079  0.0000
  O3     O3        0.273728131449792    0.248387758257265    0.293812073607875  0.0000
  O1     O1        0.234197624649574    0.789139584116668    0.309152053453692  0.0000
  O3     O3        0.764617302019021    0.253969429198907    0.736271616040378  0.0000
  O1     O1        0.731051920472798    0.793992164885015    0.714343458791581  0.0000
  O1     O1        0.144546485062399    0.264754264706562    0.136808190208181  0.0000
  O1     O1        0.361056319268246    0.788051802152560    0.147629314499931  0.0000
  O3     O3        0.871822807590636    0.390419813277691    0.886257199440208  0.0000
  O3     O3        0.620620464214411    0.676383003321454    0.890439484799546  0.0000
  O1     O1        0.859616549434752    0.790906218191629    0.878215562582659  0.0000
  O1     O1        0.639232456140637    0.271613989303545    0.897811602325659  0.0000
  O1     O1        0.118954918155413    0.667741737896883    0.145606154484061  0.0000
  O3     O3        0.379516812594003    0.386686606343812    0.143520575481300  0.0000
  O3     O3        0.665257847294316    0.518318537564715    0.099711143405402  0.0000
  O1     O1        0.845162387035391    0.584528697199265    0.106705335160712  0.0000
  O1     O1        0.340279053230151    0.574916926133036    0.924205180429288  0.0000
  O1     O1        0.163574256635001    0.492158040019215    0.924208525894279  0.0000
  O1     O1        0.767645376010444    0.263483208169217    0.064815070832934  0.0000
  O3     O3        0.730895663874047    0.811462959854141    0.031700360902522  0.0000
  O1     O1        0.271553606190626    0.248891241156729    0.973576426104320  0.0000
  O1     O1        0.232183677849983    0.812821842906048    0.988010105687051  0.0000
