data_c00886.vasp
_audit_creation_method             Generated by GULP
_audit_author_name                 Salvador R. G. Balestra
_symmetry_space_group_name_H-M     'P 1             '
_symmetry_Int_Tables_number        1

loop_
_symmetry_equiv_pos_site_id
_symmetry_equiv_pos_as_xyz
_cell_length_a                       17.5898
_cell_length_b                        7.8478
_cell_length_c                       10.1214
_cell_angle_alpha                   91.4937
_cell_angle_beta                    89.2513
_cell_angle_gamma                   88.2465

loop_
_atom_site_label
_atom_site_type_symbol
_atom_site_fract_x
_atom_site_fract_y
_atom_site_fract_z
_atom_site_charge
  Ge     Ge        0.052090000000021    0.000000000000000    0.372269999999958  0.0000
  Ge     Ge        0.445775659754832    0.947237094360046    0.387222917229251  0.0000
  Ge     Ge        0.945917131589313    0.941968711834896    0.624769678220571  0.0000
  Ge     Ge        0.545525674336964    0.013783374455483    0.126485198027853  0.0000
  Ge     Ge        0.948723981610511    0.951212241267046    0.118113411494007  0.0000
  Ge     Ge        0.447186612294399    0.938197632252262    0.865677305741345  0.0000
  Ge     Ge        0.057628216322470    0.996683013068137    0.866850098167373  0.0000
  Ge     Ge        0.146750100118425    0.313575615468722    0.300131226814580  0.0000
  Ge     Ge        0.348485896506990    0.634797455259288    0.307680562789675  0.0000
  Ge     Ge        0.669931863744215    0.698525093476067    0.731044159120434  0.0000
  Ge     Ge        0.854027698723542    0.624829611630005    0.735308342123029  0.0000
  Ge     Ge        0.646996784480041    0.300026881474163    0.738901701479917  0.0000
  Ge     Ge        0.327452624526384    0.232555119538518    0.304370033133688  0.0000
  Ge     Ge        0.644178964523936    0.321804765584746    0.061590123615870  0.0000
  Ge     Ge        0.850371403064321    0.638461876013801    0.054123868162137  0.0000
  Ge     Ge        0.327281586301904    0.226066550046652    0.984457065607735  0.0000
  Ge     Ge        0.173800363589300    0.701314992784539    0.987158998812668  0.0000
  Ge     Ge        0.355767147768038    0.627396096106120    0.985464126169878  0.0000
  Ge     Ge        0.669818106345983    0.722575454590225    0.050740249364732  0.0000
  Ge     Ge        0.823154241265238    0.238068464178277    0.054962476085963  0.0000
  Si     Si        0.556414325290632    0.986107949360795    0.621593474567939  0.0000
  Si     Si        0.826868454829866    0.232431906527465    0.740069510039832  0.0000
  Si     Si        0.170992084634531    0.710316150713647    0.300202255327365  0.0000
  Si     Si        0.148360977862865    0.304698562181058    0.989755019438576  0.0000
  O1     O1        0.085946074581925    0.201891295382152    0.395989076147209  0.0000
  O1     O1        0.407995612532473    0.750984374314627    0.405255228619354  0.0000
  O3     O3        0.870026338268781    0.081442457787620    0.658325024673782  0.0000
  O3     O3        0.625324580213268    0.851468996261459    0.636959544959958  0.0000
  O1     O1        0.917908196767054    0.736755920198245    0.645278964077770  0.0000
  O3     O3        0.583215588602136    0.175070890173950    0.656534914557833  0.0000
  O3     O3        0.124054595628961    0.845725049271209    0.392373227361086  0.0000
  O1     O1        0.374448072343554    0.099737591664962    0.409150077708498  0.0000
  O1     O1        0.972284587002863    0.962075668557054    0.461132758745646  0.0000
  O3     O3        0.528506692526292    0.981730980454779    0.470520035883248  0.0000
  O1     O1        0.026477038188792    0.991539928614549    0.208127395572237  0.0000
  O1     O1        0.470352927378840    0.964976838031580    0.221749615403079  0.0000
  O1     O1        0.028115576218827    0.990218901544675    0.705508726743084  0.0000
  O3     O3        0.481092867603967    0.938732181578868    0.703986208060741  0.0000
  O1     O1        0.578494641786073    0.216557742899887    0.151977390618431  0.0000
  O1     O1        0.912852277550637    0.753455057959723    0.145451699198656  0.0000
  O1     O1        0.367084597560329    0.068624120378634    0.884506657510979  0.0000
  O1     O1        0.126437807746356    0.840403100522022    0.889613605037137  0.0000
  O1     O1        0.423173684897389    0.733005342316029    0.899499709733737  0.0000
  O3     O3        0.091388638918212    0.198269039814222    0.900379355506593  0.0000
  O1     O1        0.620415116036503    0.870165781795777    0.145543842048076  0.0000
  O1     O1        0.875394318143905    0.099707109124237    0.144993793586676  0.0000
  O1     O1        0.518485876574117    0.008007765800014    0.962975776332329  0.0000
  O1     O1        0.976575645326523    0.958871363751084    0.954347496985746  0.0000
  O3     O3        0.157581372158362    0.521159485598875    0.354475265467511  0.0000
  O1     O1        0.340265845775103    0.436523634830690    0.366839936374746  0.0000
  O3     O3        0.844752423595439    0.415093091584125    0.678755316006638  0.0000
  O1     O1        0.651122593650666    0.497304958544385    0.670395647810929  0.0000
  O1     O1        0.231802834095573    0.200923025511112    0.302916447654075  0.0000
  O3     O3        0.260527620323008    0.743115286906422    0.301718135867500  0.0000
  O3     O3        0.736799901025654    0.202727519998863    0.736855782745130  0.0000
  O1     O1        0.765967795319733    0.725106028446793    0.727084544739848  0.0000
  O3     O3        0.115131685250514    0.320226877066333    0.138611222397385  0.0000
  O1     O1        0.382494264133747    0.618878965506691    0.148022365377698  0.0000
  O3     O3        0.854144822413481    0.232496561899174    0.891076576907840  0.0000
  O1     O1        0.636704228849226    0.724126582037524    0.890684071520127  0.0000
  O1     O1        0.884936227153327    0.621052327227881    0.894182017863917  0.0000
  O1     O1        0.617179114003475    0.332600212849958    0.898635014749206  0.0000
  O3     O3        0.142063113929709    0.723484689271624    0.149777406278324  0.0000
  O1     O1        0.360908063223503    0.212390419477271    0.143175327127444  0.0000
  O1     O1        0.656303995390202    0.524690608709846    0.118141332565042  0.0000
  O1     O1        0.836242358154532    0.442919705328857    0.116321445033079  0.0000
  O1     O1        0.348439327981089    0.422591547934288    0.924939082803468  0.0000
  O3     O3        0.158702105891075    0.492247270992606    0.933943081572784  0.0000
  O1     O1        0.728254089126982    0.201531904000153    0.063440132074462  0.0000
  O1     O1        0.765417960638751    0.754558880903040    0.046294675892212  0.0000
  O3     O3        0.229790207530807    0.204914596253255    0.992319427831343  0.0000
  O1     O1        0.269094634538445    0.734700484225226    0.977020427107585  0.0000
