data_c00859.vasp
_audit_creation_method             Generated by GULP
_audit_author_name                 Salvador R. G. Balestra
_symmetry_space_group_name_H-M     'P 1             '
_symmetry_Int_Tables_number        1

loop_
_symmetry_equiv_pos_site_id
_symmetry_equiv_pos_as_xyz
_cell_length_a                       17.5634
_cell_length_b                        7.7897
_cell_length_c                       10.4916
_cell_angle_alpha                   89.6521
_cell_angle_beta                    90.6467
_cell_angle_gamma                   91.0875

loop_
_atom_site_label
_atom_site_type_symbol
_atom_site_fract_x
_atom_site_fract_y
_atom_site_fract_z
_atom_site_charge
  Ge     Ge        0.052090000000021    0.000000000000000    0.372269999999958  0.0000
  Ge     Ge        0.451883194037264    0.037955697009638    0.361094568233900  0.0000
  Ge     Ge        0.945487691203613    0.017649472312104    0.621818057090386  0.0000
  Ge     Ge        0.551642873575730    0.024698347748137    0.102350932721725  0.0000
  Ge     Ge        0.948236804386696    0.031090062098909    0.118096211824153  0.0000
  Ge     Ge        0.445060456421324    0.057186298405777    0.849454734143579  0.0000
  Ge     Ge        0.054193728655147    0.028755941830854    0.876771445735885  0.0000
  Ge     Ge        0.177016761660282    0.281515705482528    0.257833916389011  0.0000
  Ge     Ge        0.328169848910497    0.761351820704903    0.279533271357497  0.0000
  Ge     Ge        0.824486066990310    0.294729226078104    0.704933698808121  0.0000
  Ge     Ge        0.841069973381306    0.700803260449738    0.689787847699238  0.0000
  Ge     Ge        0.145777509777599    0.687046606537261    0.274057007655200  0.0000
  Ge     Ge        0.358098456043492    0.356652604991419    0.265645174385770  0.0000
  Ge     Ge        0.650009717976560    0.347456826725195    0.022925107641217  0.0000
  Ge     Ge        0.856766421707269    0.704071619295382    0.002710499723915  0.0000
  Ge     Ge        0.359453780368695    0.378361782970851    0.956298567831207  0.0000
  Ge     Ge        0.144867996332550    0.703585158117711    0.965792996353219  0.0000
  Ge     Ge        0.327187016542409    0.780962055395737    0.970119438474611  0.0000
  Ge     Ge        0.178164204925032    0.305355142297047    0.948556509792666  0.0000
  Ge     Ge        0.676032904567447    0.754640540159250    0.022036019663138  0.0000
  Si     Si        0.550850236553433    0.025188527581331    0.613631347439565  0.0000
  Si     Si        0.661801223327309    0.736534932621889    0.715822478098910  0.0000
  Si     Si        0.644417448321730    0.337424668372773    0.723142454628195  0.0000
  Si     Si        0.829757196587328    0.300322518226700    0.007429216345102  0.0000
  O1     O1        0.132600332024479    0.119760739999242    0.340674513286301  0.0000
  O1     O1        0.373955949453717    0.903987066555683    0.379660618838896  0.0000
  O1     O1        0.870022055363241    0.156312857240665    0.609838308008255  0.0000
  O2     O2        0.608016635846417    0.868277644807348    0.639799043313180  0.0000
  O1     O1        0.902600296648521    0.820183556467803    0.598749471763637  0.0000
  O2     O2        0.588495666642317    0.213564696380209    0.640347492036418  0.0000
  O1     O1        0.079383005552226    0.789743540242728    0.363417050691667  0.0000
  O1     O1        0.422559280253783    0.245380295056156    0.356852649831099  0.0000
  O1     O1        0.020409829249568    0.046836613861283    0.522500191165218  0.0000
  O3     O3        0.526303281766504    0.013539082213704    0.467555935013884  0.0000
  O1     O1        0.975990126055003    0.044762950625191    0.274175605229020  0.0000
  O1     O1        0.486907250604575    0.976235937931276    0.215330381844180  0.0000
  O1     O1        0.980435585683986    0.053345799734032    0.773010116082880  0.0000
  O3     O3        0.475198347362177    0.010237839895213    0.697216552212158  0.0000
  O1     O1        0.587039571736473    0.232368715706976    0.113352223253777  0.0000
  O1     O1        0.925909758885222    0.819396938761017    0.081359466296258  0.0000
  O1     O1        0.424274574137219    0.270278048966250    0.867384559834170  0.0000
  O1     O1        0.082561000520871    0.818925419004155    0.874589921586953  0.0000
  O1     O1        0.361530459564366    0.944380503097980    0.877408353672377  0.0000
  O1     O1        0.132983079543702    0.158760082057963    0.851672385100715  0.0000
  O1     O1        0.630223681586410    0.896553174409741    0.112845894933311  0.0000
  O3     O3        0.871308377848520    0.162645044947656    0.095568202805222  0.0000
  O1     O1        0.511639857616496    0.984478909273432    0.955627495896246  0.0000
  O1     O1        0.023199753190486    0.092288998236467    0.025129350609341  0.0000
  O1     O1        0.127467712110326    0.469476553672785    0.270198276777307  0.0000
  O1     O1        0.376805951027193    0.572207510642539    0.276219051158202  0.0000
  O1     O1        0.841348756369398    0.494442050748210    0.640280253369514  0.0000
  O2     O2        0.644959191718233    0.536734390337618    0.674120958311285  0.0000
  O1     O1        0.267359195945430    0.314403668319710    0.318503553646528  0.0000
  O1     O1        0.236984697705831    0.719857891706014    0.331263251679288  0.0000
  O3     O3        0.727470289963684    0.259805009656471    0.711053728242031  0.0000
  O3     O3        0.749266711178679    0.781277633634970    0.686685029895102  0.0000
  O1     O1        0.187720526130348    0.226206008981643    0.101413337804187  0.0000
  O1     O1        0.321893556665689    0.842725600380571    0.127061892683175  0.0000
  O3     O3        0.856884886112385    0.285635050516754    0.861655135969193  0.0000
  O3     O3        0.645791695847854    0.753297939290002    0.864101690836131  0.0000
  O1     O1        0.875625885858631    0.714495071717632    0.843486798729563  0.0000
  O3     O3        0.615256829463246    0.330274784654844    0.866812767301981  0.0000
  O1     O1        0.137479897682762    0.769259048732308    0.121729587853934  0.0000
  O1     O1        0.366480749117498    0.295207125863715    0.108959784396103  0.0000
  O1     O1        0.655751322399316    0.550465837322966    0.078217556124592  0.0000
  O3     O3        0.849815515843892    0.492994966107011    0.054519318020161  0.0000
  O1     O1        0.379227130251952    0.595299589502092    0.960461852074139  0.0000
  O1     O1        0.124771641002181    0.488413204143022    0.953448534912646  0.0000
  O3     O3        0.740110208646556    0.262020223158252    0.017128500294315  0.0000
  O1     O1        0.771127011779026    0.798725323685919    0.029638983186337  0.0000
  O1     O1        0.268464970511014    0.350163378278880    0.896012493848556  0.0000
  O1     O1        0.236705921833439    0.733480394327867    0.916328341128195  0.0000
