data_c00833.vasp
_audit_creation_method             Generated by GULP
_audit_author_name                 Salvador R. G. Balestra
_symmetry_space_group_name_H-M     'P 1             '
_symmetry_Int_Tables_number        1

loop_
_symmetry_equiv_pos_site_id
_symmetry_equiv_pos_as_xyz
_cell_length_a                       17.6441
_cell_length_b                        7.8471
_cell_length_c                       10.1936
_cell_angle_alpha                   90.1592
_cell_angle_beta                    90.5394
_cell_angle_gamma                   91.5552

loop_
_atom_site_label
_atom_site_type_symbol
_atom_site_fract_x
_atom_site_fract_y
_atom_site_fract_z
_atom_site_charge
  Ge     Ge        0.052090000000021    0.000000000000000    0.372269999999958  0.0000
  Ge     Ge        0.451590865736514    0.055677003239184    0.371819582150053  0.0000
  Ge     Ge        0.942068987878816    0.047814241381566    0.619356535993764  0.0000
  Ge     Ge        0.556910327986299    0.011637238425312    0.120630747495072  0.0000
  Ge     Ge        0.946185105449789    0.066432064031281    0.121425036029443  0.0000
  Ge     Ge        0.448878604991497    0.062405054574476    0.868314309659100  0.0000
  Ge     Ge        0.049302695916703    0.999696741618999    0.870906801462243  0.0000
  Ge     Ge        0.175153570528794    0.286730018613949    0.258967206738740  0.0000
  Ge     Ge        0.327854732402072    0.770253247484344    0.261330159077049  0.0000
  Ge     Ge        0.844441495752238    0.364297759523294    0.687269608680289  0.0000
  Ge     Ge        0.647243389923668    0.701581904244043    0.689542396624260  0.0000
  Ge     Ge        0.146843256636627    0.688503864652479    0.257755631872988  0.0000
  Ge     Ge        0.356099899253832    0.367885122939096    0.256272760051607  0.0000
  Ge     Ge        0.672005750508267    0.311719763928121    0.007030523047963  0.0000
  Ge     Ge        0.825940768958552    0.778191020058336    0.995498186169120  0.0000
  Ge     Ge        0.352437449664062    0.374415363930329    0.936795104145941  0.0000
  Ge     Ge        0.147065540732341    0.687553950267970    0.938503205532780  0.0000
  Ge     Ge        0.326142353290186    0.776096545357057    0.943110208705088  0.0000
  Ge     Ge        0.173443583811597    0.286318627551122    0.940544914054401  0.0000
  Ge     Ge        0.853958145516443    0.376732450287501    0.004710399127532  0.0000
  Si     Si        0.553343840237540    0.014353827765648    0.625281529382444  0.0000
  Si     Si        0.826117350530181    0.757131562150278    0.683514543563447  0.0000
  Si     Si        0.664317629074423    0.307456843099469    0.696977791319881  0.0000
  Si     Si        0.648824572396234    0.708001963532821    0.998749925789425  0.0000
  O1     O1        0.127664681508360    0.138296329792263    0.351753677126133  0.0000
  O1     O1        0.375047284554983    0.918198474627106    0.357121428718298  0.0000
  O1     O1        0.899816555088329    0.239724725441074    0.591875754894240  0.0000
  O3     O3        0.589219920032655    0.830829613751566    0.598390764713703  0.0000
  O3     O3        0.872566090680714    0.889567893837204    0.594646474203342  0.0000
  O2     O2        0.618385246123950    0.164061000525204    0.611314919163361  0.0000
  O1     O1        0.079969719714053    0.796008646182091    0.343495744209220  0.0000
  O1     O1        0.424025149760651    0.259223328369843    0.339914749474458  0.0000
  O1     O1        0.021997650611772    0.015218142787164    0.532706355738617  0.0000
  O3     O3        0.481891358271177    0.048470079796318    0.534940475171956  0.0000
  O1     O1        0.972605909267839    0.050103523877530    0.283081371134748  0.0000
  O1     O1        0.527637017573821    0.999723923509000    0.280309412980092  0.0000
  O1     O1        0.970838128724103    0.044160583018278    0.781809938727936  0.0000
  O3     O3        0.525675613358643    0.014666651462504    0.775483557519412  0.0000
  O1     O1        0.624731290003242    0.171337119012732    0.105152379564983  0.0000
  O1     O1        0.868031528596612    0.938699787336926    0.082902372987983  0.0000
  O1     O1        0.415147515547139    0.263482139597572    0.844486439746851  0.0000
  O1     O1        0.082852801660239    0.798106516751191    0.847416076042883  0.0000
  O1     O1        0.375045923922463    0.917236576171760    0.847089390281588  0.0000
  O1     O1        0.122372116039540    0.145354547451915    0.845383542649038  0.0000
  O3     O3        0.590173061459881    0.811923318541366    0.083025599423613  0.0000
  O1     O1        0.921049370062748    0.273646608428840    0.093706184589744  0.0000
  O1     O1        0.478120175714428    0.055142496859851    0.029940288721137  0.0000
  O1     O1        0.023424170684683    0.008416990140511    0.034134767478678  0.0000
  O1     O1        0.159511858151976    0.488106959607265    0.319638192132073  0.0000
  O1     O1        0.343722633540745    0.568001386982688    0.319381572663777  0.0000
  O3     O3        0.839660717769313    0.568542383770777    0.626978316465069  0.0000
  O3     O3        0.647423741335671    0.492522063866876    0.635712696658292  0.0000
  O1     O1        0.270961077377972    0.254271639938471    0.261123914917867  0.0000
  O1     O1        0.231921136761397    0.801861916201007    0.262852898765802  0.0000
  O3     O3        0.753386367736460    0.275474845062652    0.694213808423370  0.0000
  O3     O3        0.737121061888118    0.792092170673105    0.680641082556950  0.0000
  O1     O1        0.142039570757812    0.273140450397896    0.099995924995602  0.0000
  O1     O1        0.359291278636405    0.788455275697115    0.102465968802423  0.0000
  O1     O1        0.880924174372467    0.371559272785638    0.842981291341017  0.0000
  O3     O3        0.617785025680112    0.693261900864557    0.850012054779830  0.0000
  O3     O3        0.855796294328666    0.772857910571802    0.833674442873507  0.0000
  O3     O3        0.637470973480658    0.295946355307770    0.847393334587408  0.0000
  O1     O1        0.117187110785190    0.665632467681371    0.097886620052575  0.0000
  O1     O1        0.383687105741496    0.393286073405989    0.096610284173735  0.0000
  O3     O3        0.659249228654108    0.520919853025497    0.057951734812012  0.0000
  O1     O1        0.848010340846931    0.583084064389503    0.059043070342970  0.0000
  O1     O1        0.338211523026592    0.573964984041864    0.878947449134175  0.0000
  O1     O1        0.160180402023950    0.488501578713774    0.877904431437255  0.0000
  O1     O1        0.766582347649289    0.274648188530063    0.015412262026944  0.0000
  O3     O3        0.729506424555676    0.809094761948519    0.997253382259482  0.0000
  O1     O1        0.268794218140673    0.253863840831818    0.939992386049050  0.0000
  O1     O1        0.230541978810573    0.808197600481570    0.943077925956246  0.0000
