data_c00882.vasp
_audit_creation_method             Generated by GULP
_audit_author_name                 Salvador R. G. Balestra
_symmetry_space_group_name_H-M     'P 1             '
_symmetry_Int_Tables_number        1

loop_
_symmetry_equiv_pos_site_id
_symmetry_equiv_pos_as_xyz
_cell_length_a                       17.7881
_cell_length_b                        7.8925
_cell_length_c                       10.2546
_cell_angle_alpha                   90.2227
_cell_angle_beta                    90.1678
_cell_angle_gamma                   90.1780

loop_
_atom_site_label
_atom_site_type_symbol
_atom_site_fract_x
_atom_site_fract_y
_atom_site_fract_z
_atom_site_charge
  Ge     Ge        0.052090000000021    0.000000000000000    0.372269999999958  0.0000
  Ge     Ge        0.445377155772004    0.033706626508548    0.375794310404608  0.0000
  Ge     Ge        0.944389888298144    0.027970769748796    0.623187363638044  0.0000
  Ge     Ge        0.557996792993875    0.037176179360495    0.130830547056438  0.0000
  Ge     Ge        0.945540991997986    0.019658615744734    0.120226636311535  0.0000
  Ge     Ge        0.453169201765849    0.035260228725996    0.874039956656153  0.0000
  Ge     Ge        0.053433485064848    0.007539801193301    0.873282856915480  0.0000
  Ge     Ge        0.171772581991757    0.286298282636272    0.255751485211628  0.0000
  Ge     Ge        0.331490397951802    0.738938139768463    0.265797719639174  0.0000
  Ge     Ge        0.659625291085317    0.742270466219774    0.691242469823379  0.0000
  Ge     Ge        0.841924128978500    0.714641069241807    0.689931390839011  0.0000
  Ge     Ge        0.652752116697340    0.338821306679767    0.695687532965002  0.0000
  Ge     Ge        0.150051794549967    0.687351120463721    0.265348300789747  0.0000
  Ge     Ge        0.653518802903316    0.349182547159194    0.014228979987200  0.0000
  Ge     Ge        0.352435565894725    0.348304317951754    0.947099795243145  0.0000
  Ge     Ge        0.153377869130841    0.695072762771697    0.946777058611916  0.0000
  Ge     Ge        0.333028020179294    0.755396126883020    0.950801116679718  0.0000
  Ge     Ge        0.173949468748916    0.292146131677948    0.938186959410895  0.0000
  Ge     Ge        0.670334009927282    0.752846849431724    0.006041082154047  0.0000
  Ge     Ge        0.833913527539274    0.316899449440971    0.001379264396179  0.0000
  Si     Si        0.551697899755297    0.032807289896257    0.620328519610654  0.0000
  Si     Si        0.831497485362254    0.315740549710167    0.692633472896893  0.0000
  Si     Si        0.348778760575929    0.339382509729238    0.257306105935734  0.0000
  Si     Si        0.847611806543922    0.717274264314259    0.995342408339056  0.0000
  O1     O1        0.126101528514358    0.133730082500632    0.341302020330341  0.0000
  O1     O1        0.381954048634361    0.871290331219454    0.365888371265442  0.0000
  O3     O3        0.880054573921907    0.191196070528650    0.602762751009966  0.0000
  O3     O3        0.606458205804043    0.874715501257559    0.593609199231913  0.0000
  O1     O1        0.899108199363937    0.837555669313421    0.596153467587794  0.0000
  O3     O3        0.598147137101904    0.205869626454317    0.600864443050025  0.0000
  O1     O1        0.085638400099999    0.797618198356490    0.355314429622748  0.0000
  O3     O3        0.405542825671779    0.228029553052283    0.342343510236468  0.0000
  O1     O1        0.022851582750832    0.040446730478810    0.529514089905801  0.0000
  O3     O3        0.476168541879853    0.033669203311224    0.536989414947322  0.0000
  O1     O1        0.972267219264784    0.028055914035503    0.280925728783724  0.0000
  O1     O1        0.525186953428909    0.007774037037952    0.285860995137696  0.0000
  O1     O1        0.974829747600345    0.036090641232789    0.782624822127999  0.0000
  O3     O3        0.528491282567959    0.015405010141984    0.772140695179324  0.0000
  O1     O1        0.590733369415344    0.239672495569486    0.106997781276402  0.0000
  O3     O3        0.901052577008606    0.829022607605768    0.086672166835289  0.0000
  O1     O1        0.418101345018462    0.237205386454407    0.861976006620507  0.0000
  O1     O1        0.092657558363075    0.810564728692671    0.853236468031116  0.0000
  O1     O1        0.381665872174705    0.890152316452515    0.852101849512296  0.0000
  O1     O1        0.122054763633022    0.157568760398232    0.843947574323444  0.0000
  O1     O1        0.632021998671551    0.901752238522614    0.104774487157699  0.0000
  O1     O1        0.888596668757477    0.191624653649016    0.095897762375498  0.0000
  O1     O1        0.484302346400383    0.993006913259305    0.029102059199620  0.0000
  O1     O1        0.027231431693428    0.031345206271929    0.034278004702202  0.0000
  O1     O1        0.155005352708659    0.483129636277256    0.321371431676653  0.0000
  O3     O3        0.341629383624669    0.528463618908322    0.313843605213347  0.0000
  O3     O3        0.838799438975576    0.506096788189871    0.638188503567572  0.0000
  O1     O1        0.648887734268807    0.538820520617667    0.633538619558107  0.0000
  O3     O3        0.267787299508984    0.247796858268312    0.256525383372315  0.0000
  O1     O1        0.237422672077190    0.782208267232988    0.274032115091764  0.0000
  O3     O3        0.744259423657136    0.263412742652171    0.694642995355662  0.0000
  O1     O1        0.752989676142511    0.796216932599374    0.683771568047582  0.0000
  O1     O1        0.142516446903857    0.285569806032509    0.096742948380840  0.0000
  O1     O1        0.363839164538374    0.766234852366277    0.110323201013098  0.0000
  O3     O3        0.862300787271825    0.304417556872532    0.840458347753803  0.0000
  O1     O1        0.632195308843853    0.751922235676725    0.851822910597411  0.0000
  O3     O3        0.878238299256916    0.718503642246113    0.847661263890034  0.0000
  O1     O1        0.623011831007946    0.343221770293634    0.854338558411655  0.0000
  O1     O1        0.121586077395370    0.684182223166902    0.104872075300460  0.0000
  O3     O3        0.379536216002957    0.349490352598546    0.110274977652592  0.0000
  O1     O1        0.657543794759111    0.553908820795774    0.069464358495259  0.0000
  O3     O3        0.843127748056759    0.527346908173711    0.049788505379302  0.0000
  O1     O1        0.345372932383454    0.551028157364691    0.893500998079571  0.0000
  O1     O1        0.164053240906455    0.497035839264854    0.882763354293823  0.0000
  O1     O1        0.741771982321147    0.260485182908811    0.018554324408847  0.0000
  O3     O3        0.764946499189934    0.798323911377070    0.990414462671362  0.0000
  O1     O1        0.267780383019695    0.243941870167588    0.934209090490499  0.0000
  O1     O1        0.238896356895957    0.799007904963732    0.951257514030100  0.0000
