data_c00806.vasp
_audit_creation_method             Generated by GULP
_audit_author_name                 Salvador R. G. Balestra
_symmetry_space_group_name_H-M     'P 1             '
_symmetry_Int_Tables_number        1

loop_
_symmetry_equiv_pos_site_id
_symmetry_equiv_pos_as_xyz
_cell_length_a                       17.0061
_cell_length_b                        7.8499
_cell_length_c                       10.5617
_cell_angle_alpha                   85.0073
_cell_angle_beta                    91.0354
_cell_angle_gamma                   89.5190

loop_
_atom_site_label
_atom_site_type_symbol
_atom_site_fract_x
_atom_site_fract_y
_atom_site_fract_z
_atom_site_charge
  Ge     Ge        0.052090000000021    0.000000000000000    0.372269999999958  0.0000
  Ge     Ge        0.468490230748646    0.030402287721859    0.382109254222703  0.0000
  Ge     Ge        0.958798770439701    0.060765397591908    0.633319311390927  0.0000
  Ge     Ge        0.585198684466923    0.067762127558110    0.156143402109635  0.0000
  Ge     Ge        0.952021270200640    0.031851001352241    0.113869467001344  0.0000
  Ge     Ge        0.463131297269693    0.130134848199664    0.910792876339234  0.0000
  Ge     Ge        0.071932544574444    0.120410957679772    0.891133540847373  0.0000
  Ge     Ge        0.177790161698486    0.301557562064158    0.247989101107865  0.0000
  Ge     Ge        0.355416431913910    0.737622019632285    0.317274057876365  0.0000
  Ge     Ge        0.838587220712309    0.346992831066330    0.705373644524104  0.0000
  Ge     Ge        0.674002238009582    0.826160524645528    0.718829107841417  0.0000
  Ge     Ge        0.648263405679809    0.400670965596553    0.738379743269982  0.0000
  Ge     Ge        0.160972750467205    0.711924944823158    0.293762890857188  0.0000
  Ge     Ge        0.358909586612880    0.350614797903258    0.269364373800881  0.0000
  Ge     Ge        0.654955116743296    0.411063600135723    0.032791873287586  0.0000
  Ge     Ge        0.365500374052020    0.468130063549273    0.956575486339390  0.0000
  Ge     Ge        0.356285525622766    0.836559869336305    0.018269536189370  0.0000
  Ge     Ge        0.184092606484710    0.416814459342111    0.941363266548534  0.0000
  Ge     Ge        0.695125522769062    0.805807414065896    0.026638984460694  0.0000
  Ge     Ge        0.851191355673055    0.344386081553549    0.005071655397065  0.0000
  Si     Si        0.545768744628820    0.112588241525431    0.642401029226832  0.0000
  Si     Si        0.849585019712714    0.743646486047235    0.693559599178541  0.0000
  Si     Si        0.872887109715769    0.720619302347539    0.998233789086562  0.0000
  Si     Si        0.165251990460716    0.792936847471081    0.005547094581420  0.0000
  O1     O1        0.115656701928719    0.146120014489837    0.302144042404301  0.0000
  O1     O1        0.408281720100840    0.862092683735952    0.416396443595121  0.0000
  O1     O1        0.885191330541841    0.212442357544242    0.610975208207164  0.0000
  O3     O3        0.611332970354449    0.964629312882930    0.629547985995714  0.0000
  O3     O3        0.920181605620982    0.855408908584221    0.638454533765037  0.0000
  O3     O3        0.583823613150712    0.298684066349412    0.642325305036504  0.0000
  O1     O1        0.100175817674215    0.806495881997690    0.395918269397636  0.0000
  O1     O1        0.429665928433726    0.197151893443987    0.279028802082192  0.0000
  O1     O1        0.022420932666542    0.076440117700526    0.510118964331334  0.0000
  O3     O3        0.485853449119622    0.116616368795378    0.524952673410086  0.0000
  O1     O1        0.972478875571122    0.980022615557598    0.270068769698762  0.0000
  O1     O1        0.553191133913758    0.991811656734049    0.302536300274356  0.0000
  O1     O1        0.007470551651620    0.081249454596619    0.772567402105465  0.0000
  O3     O3        0.499311950090576    0.067395830735653    0.772193316021783  0.0000
  O1     O1        0.614241590969728    0.280947339060237    0.150138949800763  0.0000
  O3     O3        0.939602487787655    0.853870133112760    0.026764671210285  0.0000
  O1     O1        0.442057997584290    0.343191628994327    0.912655113980781  0.0000
  O3     O3        0.139708345646060    0.950552377304089    0.909805279994420  0.0000
  O1     O1        0.372914742399964    0.029952892127169    0.939735034332316  0.0000
  O1     O1        0.124228418471985    0.301322324432653    0.848337788309045  0.0000
  O1     O1        0.668404220263867    0.955850242161600    0.124973020681285  0.0000
  O1     O1        0.872031277813594    0.170922985113845    0.107451473225741  0.0000
  O1     O1        0.518471035716760    0.038195064873707    0.036008083755423  0.0000
  O1     O1        0.022983230158661    0.144943330777389    0.029540160099129  0.0000
  O1     O1        0.147432538836100    0.497888385655862    0.292615181653660  0.0000
  O1     O1        0.380253392703972    0.526589769361514    0.350901842752599  0.0000
  O3     O3        0.854906367534001    0.556578574242741    0.645031133683012  0.0000
  O1     O1        0.643767887661098    0.618231811351061    0.712993798669434  0.0000
  O1     O1        0.270567091555753    0.262916018780568    0.314598333511917  0.0000
  O1     O1        0.255974084622216    0.759423693905988    0.334295849435956  0.0000
  O1     O1        0.738915445603883    0.316640394234895    0.709247280423889  0.0000
  O3     O3        0.767093028552931    0.836601035621207    0.653650541812224  0.0000
  O1     O1        0.184597165415629    0.297888611804105    0.086595458250690  0.0000
  O1     O1        0.388561495647058    0.830173765630668    0.173919599421395  0.0000
  O1     O1        0.877563258035617    0.297408948096572    0.855470904868166  0.0000
  O1     O1        0.678313666929236    0.884733923371500    0.871028714798883  0.0000
  O2     O2        0.848574233522311    0.715020986651586    0.848517060387122  0.0000
  O1     O1        0.616004131402042    0.348448371833246    0.891205893891044  0.0000
  O3     O3        0.129784994061444    0.809532069490224    0.144864699278498  0.0000
  O1     O1        0.344289912168754    0.443114663834245    0.116769579759440  0.0000
  O1     O1        0.640715641384325    0.622276692882890    0.056463614408410  0.0000
  O3     O3        0.899116358805228    0.529344663574571    0.046353723605602  0.0000
  O1     O1        0.396025286854791    0.676187996546166    0.935978544241609  0.0000
  O3     O3        0.140599970204652    0.615540186311233    0.950714765965901  0.0000
  O1     O1        0.753906082986616    0.403030586862623    0.000992759234564  0.0000
  O3     O3        0.794127974106027    0.778446691310523    0.065531125475796  0.0000
  O1     O1        0.277471836780751    0.431230945632638    0.880873842765527  0.0000
  O3     O3        0.258869793236444    0.773747663461378    0.031638148370084  0.0000
