data_c00889.vasp
_audit_creation_method             Generated by GULP
_audit_author_name                 Salvador R. G. Balestra
_symmetry_space_group_name_H-M     'P 1             '
_symmetry_Int_Tables_number        1

loop_
_symmetry_equiv_pos_site_id
_symmetry_equiv_pos_as_xyz
_cell_length_a                       17.6580
_cell_length_b                        7.8028
_cell_length_c                       10.0905
_cell_angle_alpha                   91.7885
_cell_angle_beta                    89.9214
_cell_angle_gamma                   90.8044

loop_
_atom_site_label
_atom_site_type_symbol
_atom_site_fract_x
_atom_site_fract_y
_atom_site_fract_z
_atom_site_charge
  Ge     Ge        0.052090000000021    0.000000000000000    0.372269999999958  0.0000
  Ge     Ge        0.444757395825333    0.053363299123182    0.392875455813985  0.0000
  Ge     Ge        0.941022582642633    0.028383562866184    0.620931062207314  0.0000
  Ge     Ge        0.548045314990930    0.995628884140488    0.134198427844124  0.0000
  Ge     Ge        0.951809932700763    0.059097628277804    0.115099458374548  0.0000
  Ge     Ge        0.445213109150967    0.037664274844839    0.875277435581934  0.0000
  Ge     Ge        0.055994020642936    0.985627901093270    0.861029219213888  0.0000
  Ge     Ge        0.171127137567430    0.288296768726296    0.304815234685553  0.0000
  Ge     Ge        0.324590700478054    0.769430273576499    0.306402008761488  0.0000
  Ge     Ge        0.641784883383064    0.673502024438675    0.738478313833229  0.0000
  Ge     Ge        0.824321452633352    0.737392513797138    0.729829688943762  0.0000
  Ge     Ge        0.668316671990124    0.271315933582597    0.739948053318673  0.0000
  Ge     Ge        0.350060698909630    0.365381172324715    0.314185729673737  0.0000
  Ge     Ge        0.671871795020508    0.279118201425031    0.063283467856858  0.0000
  Ge     Ge        0.826532484893428    0.770788039450440    0.048705243717446  0.0000
  Ge     Ge        0.147302614375144    0.675037017433210    0.985157339023920  0.0000
  Ge     Ge        0.327310094194320    0.749957224284481    0.986213453436235  0.0000
  Ge     Ge        0.175370962029165    0.270989910936434    0.984069277425292  0.0000
  Ge     Ge        0.648725029088099    0.684463720495256    0.060553582638905  0.0000
  Ge     Ge        0.847772332393207    0.365900455611933    0.060317451934396  0.0000
  Si     Si        0.551749714961347    0.984697038911952    0.629438262145826  0.0000
  Si     Si        0.845187494524245    0.342361034420667    0.741291948966392  0.0000
  Si     Si        0.149024944240325    0.686445290722957    0.300795661840403  0.0000
  Si     Si        0.351888102034943    0.349601126012808    0.998341872000094  0.0000
  O1     O1        0.119245657988260    0.158127298764182    0.404380447738940  0.0000
  O1     O1        0.369097011745625    0.914964982734349    0.410390248764922  0.0000
  O3     O3        0.908376842466033    0.228904662349618    0.668310065690983  0.0000
  O3     O3        0.573802241386669    0.790577145382812    0.658129797061678  0.0000
  O1     O1        0.872634400223812    0.872420245446856    0.628415154973954  0.0000
  O3     O3        0.624859501385701    0.105597743554857    0.651523476584352  0.0000
  O3     O3        0.090274953060692    0.797423757289586    0.387833595225422  0.0000
  O1     O1        0.413528801177064    0.259478534766492    0.409905393852884  0.0000
  O1     O1        0.970463305862074    0.032313266309556    0.457702236790092  0.0000
  O3     O3        0.524820101715398    0.000609484053307    0.477805090192213  0.0000
  O1     O1        0.028741777436853    0.015854150853670    0.206678624444981  0.0000
  O1     O1        0.470523310272825    0.032260526919791    0.227538578757670  0.0000
  O1     O1        0.024447869644014    0.983349794903183    0.700114493941774  0.0000
  O3     O3        0.478591529720241    0.045862594656440    0.713401512142849  0.0000
  O1     O1        0.618182788707088    0.149402734745768    0.159008821542175  0.0000
  O1     O1        0.878657337670575    0.915459141483438    0.140452005836923  0.0000
  O3     O3        0.413245593995822    0.241694149840955    0.916086346199509  0.0000
  O1     O1        0.078986151130870    0.780054768363450    0.902645718213631  0.0000
  O1     O1        0.375319797748851    0.883524978525970    0.883531222306566  0.0000
  O1     O1        0.134706813277453    0.115973773472333    0.883549729599879  0.0000
  O1     O1        0.586580710867487    0.797439473292881    0.157313740663158  0.0000
  O1     O1        0.917352255067498    0.263282216262515    0.141667674819373  0.0000
  O1     O1        0.521406132666745    0.991393615531543    0.969340522925051  0.0000
  O1     O1        0.979678770180233    0.054210192422395    0.951249045272579  0.0000
  O3     O3        0.161321189236729    0.501552761723737    0.360038036361204  0.0000
  O1     O1        0.341701641180646    0.571409851046054    0.370166199698072  0.0000
  O3     O3        0.836639470060107    0.525867867417064    0.674680718178522  0.0000
  O1     O1        0.647125383460705    0.465888669180668    0.675300061842035  0.0000
  O1     O1        0.266147459743150    0.250395053353728    0.316500780594936  0.0000
  O3     O3        0.227706136785780    0.795689358811892    0.297847837304634  0.0000
  O3     O3        0.765295950655503    0.239536330896412    0.734097537038790  0.0000
  O1     O1        0.728697598133188    0.773333660527942    0.726833771862009  0.0000
  O1     O1        0.141547877805232    0.257634080322673    0.143359238236868  0.0000
  O1     O1        0.357900791342059    0.784990382507069    0.146425838061977  0.0000
  O3     O3        0.867663549689941    0.384922343297997    0.892458608287764  0.0000
  O1     O1        0.615976966638081    0.654186086936831    0.900495358226709  0.0000
  O1     O1        0.858468014322151    0.777067621205100    0.886978614861815  0.0000
  O1     O1        0.640095916017752    0.261962215360775    0.901837403801797  0.0000
  O3     O3        0.120874396470773    0.658408724657307    0.150080552490042  0.0000
  O3     O3        0.379133088386354    0.374898733004587    0.149725864405825  0.0000
  O1     O1        0.664293472022541    0.488488601376721    0.122933787133376  0.0000
  O1     O1        0.837619254803437    0.571456845697156    0.116780569431869  0.0000
  O3     O3        0.341057440320696    0.535895268038421    0.938593451198988  0.0000
  O1     O1        0.155855833286423    0.469082262022612    0.923581230777979  0.0000
  O1     O1        0.766983341412037    0.239866527277137    0.069896149739731  0.0000
  O1     O1        0.731094043830198    0.806296387723775    0.048912632684789  0.0000
  O3     O3        0.272510109786290    0.244671759284262    0.993264121231935  0.0000
  O1     O1        0.232026686734377    0.785031605853558    0.974758396302532  0.0000
