data_c00867.vasp
_audit_creation_method             Generated by GULP
_audit_author_name                 Salvador R. G. Balestra
_symmetry_space_group_name_H-M     'P 1             '
_symmetry_Int_Tables_number        1

loop_
_symmetry_equiv_pos_site_id
_symmetry_equiv_pos_as_xyz
_cell_length_a                       17.6183
_cell_length_b                        7.8277
_cell_length_c                       10.1043
_cell_angle_alpha                   89.1761
_cell_angle_beta                    90.8223
_cell_angle_gamma                   88.6941

loop_
_atom_site_label
_atom_site_type_symbol
_atom_site_fract_x
_atom_site_fract_y
_atom_site_fract_z
_atom_site_charge
  Ge     Ge        0.052090000000021    0.000000000000000    0.372269999999958  0.0000
  Ge     Ge        0.449848320807664    0.943910534746956    0.384789663565821  0.0000
  Ge     Ge        0.939772321588939    0.979163273333943    0.614609727890677  0.0000
  Ge     Ge        0.548145733694785    0.008093399842901    0.123714385366467  0.0000
  Ge     Ge        0.954221986152629    0.947788626752238    0.108041711889011  0.0000
  Ge     Ge        0.445831713458827    0.953431558016237    0.860524949752712  0.0000
  Ge     Ge        0.058619978321606    0.009298696922252    0.855126407246625  0.0000
  Ge     Ge        0.149248141664653    0.312443647521475    0.297024490920939  0.0000
  Ge     Ge        0.354031616252395    0.633731578604504    0.299710710403294  0.0000
  Ge     Ge        0.826581109177146    0.276695828606692    0.719915103716398  0.0000
  Ge     Ge        0.641774981817304    0.332198554297036    0.731738658036758  0.0000
  Ge     Ge        0.174117265509570    0.719002313601132    0.293043301306945  0.0000
  Ge     Ge        0.327978645319317    0.228044705751619    0.300860730858804  0.0000
  Ge     Ge        0.648991477754730    0.315202357980721    0.050463737322939  0.0000
  Ge     Ge        0.849664011078929    0.641651143476365    0.053164358002615  0.0000
  Ge     Ge        0.326476540795267    0.232818345746160    0.979768387740402  0.0000
  Ge     Ge        0.174386113080331    0.712286846642067    0.974010211620521  0.0000
  Ge     Ge        0.356597227608667    0.634686522954390    0.978604825056044  0.0000
  Ge     Ge        0.672692780781872    0.719162775050316    0.056624007447062  0.0000
  Ge     Ge        0.828968506073440    0.237097025847587    0.037923009875521  0.0000
  Si     Si        0.554962435731870    0.014712942558081    0.623161465452339  0.0000
  Si     Si        0.665342890407571    0.724837133484285    0.740781496800014  0.0000
  Si     Si        0.841844823370244    0.667833699757638    0.735213358467572  0.0000
  Si     Si        0.148962810063569    0.314720719486961    0.982943270963455  0.0000
  O1     O1        0.085126517910473    0.203538065077784    0.389835011822707  0.0000
  O1     O1        0.416036306398711    0.741895412302437    0.399997495713166  0.0000
  O1     O1        0.874464946077437    0.142961654210955    0.616109636054628  0.0000
  O2     O2        0.623939506647097    0.885613202802591    0.666894216633144  0.0000
  O3     O3        0.899042869151985    0.790171923405839    0.662059446237029  0.0000
  O3     O3        0.579648867884271    0.208627782039631    0.640922198109447  0.0000
  O1     O1        0.125316332561778    0.852583935134538    0.395530467781903  0.0000
  O1     O1        0.377837909823398    0.092044780489809    0.405753018540095  0.0000
  O1     O1        0.971081512615653    0.957889402581939    0.454165855830597  0.0000
  O3     O3        0.532683537478346    0.983717548705807    0.470785204456849  0.0000
  O1     O1        0.030295213388861    0.985878548973715    0.204642152812297  0.0000
  O1     O1        0.472925747678214    0.968651285863199    0.219392769465875  0.0000
  O1     O1        0.024079155078164    0.019220873695709    0.695030428060052  0.0000
  O3     O3        0.477469990082920    0.973073002977556    0.699168762750366  0.0000
  O1     O1        0.588759807180912    0.203194082710431    0.148067413915073  0.0000
  O1     O1        0.920000582811705    0.744851407691979    0.133471692776097  0.0000
  O1     O1        0.365869332258747    0.080035986736674    0.882237541031226  0.0000
  O1     O1        0.129255907889389    0.855102480258537    0.868429610067386  0.0000
  O1     O1        0.421726751799933    0.744973895385097    0.889353103465388  0.0000
  O3     O3        0.089358801709526    0.210744498166402    0.897004503997957  0.0000
  O1     O1        0.618195932914584    0.852290843549704    0.147254481516963  0.0000
  O1     O1        0.880132574297470    0.091888108743270    0.130613043469392  0.0000
  O1     O1        0.518692993137198    0.013875796809360    0.960201631509733  0.0000
  O1     O1        0.981019499237085    0.957941294622612    0.945112288633316  0.0000
  O1     O1        0.161875437075732    0.513212228589548    0.352983322912653  0.0000
  O1     O1        0.339836845279523    0.432941342385399    0.358624541321572  0.0000
  O3     O3        0.840421706809170    0.485215752545405    0.665621945316973  0.0000
  O3     O3        0.643302949310433    0.545532374002015    0.676746864322046  0.0000
  O1     O1        0.232510308287762    0.191876120495461    0.302130598942755  0.0000
  O1     O1        0.269964638285585    0.752460428220130    0.292839818756592  0.0000
  O1     O1        0.730813344404365    0.244367100347715    0.717304565363786  0.0000
  O2     O2        0.756256151548089    0.751373997182536    0.733647893252690  0.0000
  O3     O3        0.119838797858357    0.332939152185642    0.132206267450787  0.0000
  O1     O1        0.387290063546331    0.619777543127955    0.140903376277461  0.0000
  O1     O1        0.860862666063843    0.234435324379741    0.876988631371673  0.0000
  O3     O3        0.640909975453652    0.725828912930579    0.892529718113744  0.0000
  O3     O3        0.868380387666870    0.631972723465897    0.884858324608937  0.0000
  O1     O1        0.612412757408567    0.334691064361791    0.891187008559170  0.0000
  O1     O1        0.141214113517867    0.738695091465027    0.131410008426089  0.0000
  O1     O1        0.359763438748878    0.214358622888821    0.140410672495840  0.0000
  O1     O1        0.663256158325370    0.511944834193168    0.113741796616318  0.0000
  O1     O1        0.840900166399647    0.436687414771630    0.106349803706591  0.0000
  O1     O1        0.347707719432736    0.432257512794627    0.918920134959699  0.0000
  O3     O3        0.159667064584939    0.503519653418177    0.922796438412394  0.0000
  O1     O1        0.733488234997840    0.200830651178462    0.036445191771187  0.0000
  O1     O1        0.766945307196337    0.761763396344821    0.068338524335985  0.0000
  O3     O3        0.229047002307236    0.210520235711863    0.984564294826511  0.0000
  O1     O1        0.270259985076174    0.742330591691466    0.973244127511387  0.0000
