data_c00872.vasp
_audit_creation_method             Generated by GULP
_audit_author_name                 Salvador R. G. Balestra
_symmetry_space_group_name_H-M     'P 1             '
_symmetry_Int_Tables_number        1

loop_
_symmetry_equiv_pos_site_id
_symmetry_equiv_pos_as_xyz
_cell_length_a                       16.7102
_cell_length_b                        7.8728
_cell_length_c                       10.9361
_cell_angle_alpha                   89.3540
_cell_angle_beta                    90.1827
_cell_angle_gamma                   90.1456

loop_
_atom_site_label
_atom_site_type_symbol
_atom_site_fract_x
_atom_site_fract_y
_atom_site_fract_z
_atom_site_charge
  Ge     Ge        0.052090000000021    0.000000000000000    0.372269999999958  0.0000
  Ge     Ge        0.485670667755639    0.000798719438356    0.371449443815697  0.0000
  Ge     Ge        0.961732197700276    0.012411759905172    0.632528808735591  0.0000
  Ge     Ge        0.579929536027497    0.995320327455143    0.117517212142655  0.0000
  Ge     Ge        0.953593303520974    0.983809724701650    0.119643374167806  0.0000
  Ge     Ge        0.456713534019030    0.968795842448187    0.876937489746989  0.0000
  Ge     Ge        0.075763210981106    0.972703616383720    0.880340177346410  0.0000
  Ge     Ge        0.169639814633418    0.286160193859807    0.299598494661512  0.0000
  Ge     Ge        0.365529377141744    0.699190857861751    0.256000091634013  0.0000
  Ge     Ge        0.858152170643267    0.322809304882833    0.695685992442201  0.0000
  Ge     Ge        0.661010838210756    0.324418593810106    0.703752828239015  0.0000
  Ge     Ge        0.175715832595703    0.703524205921327    0.257910243819144  0.0000
  Ge     Ge        0.365723438105282    0.281969319762982    0.297126249734910  0.0000
  Ge     Ge        0.865834438637657    0.654857580775323    0.032209022751577  0.0000
  Ge     Ge        0.365358676266613    0.249653124451455    0.013480438792927  0.0000
  Ge     Ge        0.171061645597445    0.642693485457293    0.962513765126806  0.0000
  Ge     Ge        0.362780587244828    0.638679478640955    0.960231922235758  0.0000
  Ge     Ge        0.169915219918342    0.253404382292174    0.016235205703297  0.0000
  Ge     Ge        0.668088684468419    0.662362216971117    0.035169472254485  0.0000
  Ge     Ge        0.858170280793630    0.267103218459431    0.980934173820707  0.0000
  Si     Si        0.564876495094480    0.008422107042126    0.634097765024589  0.0000
  Si     Si        0.664583611126766    0.711796371960216    0.750992634045616  0.0000
  Si     Si        0.856577250100991    0.712581724436782    0.748226350713288  0.0000
  Si     Si        0.669017070206406    0.286002742623836    0.983170803906155  0.0000
  O1     O1        0.110412787505550    0.175270815920984    0.401074414534925  0.0000
  O1     O1        0.436717960722653    0.823239174952852    0.320504472572327  0.0000
  O1     O1        0.916120603422841    0.203422844409709    0.600007747165735  0.0000
  O2     O2        0.634764664100581    0.876503648721527    0.677009848040904  0.0000
  O3     O3        0.885022446740712    0.870179424935544    0.669607417202624  0.0000
  O3     O3        0.604157418810440    0.193045595065643    0.611617839863364  0.0000
  O1     O1        0.108538015488068    0.831193440113249    0.326317236941730  0.0000
  O1     O1        0.423012052799328    0.167177210863450    0.399331067508372  0.0000
  O1     O1        0.004736399827865    0.937832057401281    0.503082969689988  0.0000
  O3     O3        0.530175403992022    0.941743804574181    0.508252475882517  0.0000
  O1     O1        0.982415174443271    0.047194031315677    0.260254762931289  0.0000
  O1     O1        0.554450954040719    0.056174668080226    0.260798427930511  0.0000
  O1     O1        0.034125017347469    0.024835885417276    0.743009705236498  0.0000
  O3     O3        0.497019434092906    0.018020621602188    0.736918768249033  0.0000
  O3     O3        0.660558007022426    0.124365505324888    0.069604714947711  0.0000
  O1     O1        0.927510846947841    0.773724388681192    0.123783388360780  0.0000
  O1     O1        0.374886183717732    0.100964216595485    0.903812276376650  0.0000
  O1     O1        0.105753778340051    0.766674747012732    0.876879215343078  0.0000
  O1     O1        0.425965705329579    0.763731979216151    0.871848339238003  0.0000
  O1     O1        0.158640498778125    0.102176233147745    0.908569672815703  0.0000
  O1     O1        0.612062673772777    0.788805626136988    0.127452734921622  0.0000
  O1     O1        0.868841526819431    0.099943558107100    0.076254946021939  0.0000
  O1     O1        0.509496912692638    0.030540536761764    0.005952460196412  0.0000
  O1     O1        0.018942272640527    0.037160858018413    0.003816003253968  0.0000
  O1     O1        0.147873902178846    0.496556970907209    0.287207814266890  0.0000
  O1     O1        0.390767835254454    0.491116904770056    0.285199294428317  0.0000
  O3     O3        0.886313340230219    0.534688962203592    0.693496628621143  0.0000
  O3     O3        0.633795049778375    0.537366209122802    0.692384752192414  0.0000
  O1     O1        0.267885792825772    0.259117187046065    0.340349418608339  0.0000
  O1     O1        0.271155929246675    0.737265749607843    0.312197920282334  0.0000
  O1     O1        0.758606896055181    0.298701591916858    0.661916009436759  0.0000
  O2     O2        0.760553012766089    0.696016622148361    0.756038842936736  0.0000
  O1     O1        0.144302073849964    0.190442462356656    0.162501955518256  0.0000
  O1     O1        0.362182257189905    0.735395686622154    0.101264566883247  0.0000
  O1     O1        0.887681239141608    0.231511084903821    0.833871353458380  0.0000
  O3     O3        0.637864255193462    0.735000799126937    0.890214468529605  0.0000
  O3     O3        0.887775089229307    0.735146907415723    0.886170617829979  0.0000
  O3     O3        0.632739820669598    0.254646974995968    0.849034973359569  0.0000
  O1     O1        0.174188643003091    0.740519491957243    0.103161520329376  0.0000
  O1     O1        0.390464278930091    0.186202390727514    0.160125257189514  0.0000
  O3     O3        0.634618683792819    0.454230502078743    0.047650177714105  0.0000
  O1     O1        0.897710066848112    0.449905598686342    0.043188479634058  0.0000
  O1     O1        0.406220376401714    0.442438208529959    0.967741913013829  0.0000
  O1     O1        0.128059474013343    0.445353568701874    0.971216722279274  0.0000
  O3     O3        0.760787722934823    0.339220451803521    0.953088474736565  0.0000
  O1     O1        0.767205675641404    0.686828455698516    0.070466562871174  0.0000
  O1     O1        0.267950228585511    0.319248627549682    0.038919328182239  0.0000
  O1     O1        0.266388915861355    0.641108355415291    0.902282225510019  0.0000
