data_c00885.vasp
_audit_creation_method             Generated by GULP
_audit_author_name                 Salvador R. G. Balestra
_symmetry_space_group_name_H-M     'P 1             '
_symmetry_Int_Tables_number        1

loop_
_symmetry_equiv_pos_site_id
_symmetry_equiv_pos_as_xyz
_cell_length_a                       17.6548
_cell_length_b                        7.8023
_cell_length_c                       10.1610
_cell_angle_alpha                   91.4194
_cell_angle_beta                    89.9929
_cell_angle_gamma                   90.7810

loop_
_atom_site_label
_atom_site_type_symbol
_atom_site_fract_x
_atom_site_fract_y
_atom_site_fract_z
_atom_site_charge
  Ge     Ge        0.052090000000021    0.000000000000000    0.372269999999958  0.0000
  Ge     Ge        0.446692409986005    0.046136933637059    0.420937466932037  0.0000
  Ge     Ge        0.941473237624644    0.027997770469089    0.621597846301940  0.0000
  Ge     Ge        0.553587311436310    0.002530594235409    0.168559522423609  0.0000
  Ge     Ge        0.948025640815137    0.061853766505317    0.118494510387976  0.0000
  Ge     Ge        0.448575080990542    0.051977820304994    0.914161156130161  0.0000
  Ge     Ge        0.052480340612762    0.993303897668203    0.866756026410328  0.0000
  Ge     Ge        0.172598384453796    0.288249673889063    0.304060661482212  0.0000
  Ge     Ge        0.324934323745925    0.764179182729211    0.308445826644482  0.0000
  Ge     Ge        0.644807006062827    0.671497975407728    0.728581760641406  0.0000
  Ge     Ge        0.825297014429588    0.735722740426091    0.727580118979364  0.0000
  Ge     Ge        0.666480100802535    0.268769324460403    0.742343995077857  0.0000
  Ge     Ge        0.353946179906031    0.361976352572795    0.305257198877907  0.0000
  Ge     Ge        0.668973229615942    0.295592383444605    0.060955274972013  0.0000
  Ge     Ge        0.824310280073053    0.773847063624845    0.045100092526895  0.0000
  Ge     Ge        0.351448803254166    0.367125454372252    0.984590843735038  0.0000
  Ge     Ge        0.146026043647507    0.686282334142042    0.992998479583495  0.0000
  Ge     Ge        0.324057039719668    0.771729601680649    0.989350972008781  0.0000
  Ge     Ge        0.173088583346667    0.278705897721891    0.986052410646662  0.0000
  Ge     Ge        0.847221009243155    0.371586371550308    0.061176525096467  0.0000
  Si     Si        0.550243268459967    0.983607617362994    0.666865376215861  0.0000
  Si     Si        0.843903665261949    0.338296048865034    0.745740106141008  0.0000
  Si     Si        0.148540039032720    0.684826532906620    0.305837811384461  0.0000
  Si     Si        0.648495318854204    0.694183110912991    0.041863307910489  0.0000
  O1     O1        0.121396649726488    0.153435355567718    0.401146213647580  0.0000
  O1     O1        0.367330483117364    0.918894503851045    0.405316578069552  0.0000
  O3     O3        0.905105858883558    0.224497146358796    0.669281799155155  0.0000
  O3     O3        0.578888033853145    0.790358853473135    0.644410303752271  0.0000
  O1     O1        0.875648256645307    0.865584485988490    0.625989628932962  0.0000
  O3     O3        0.620410443074304    0.114641044548073    0.646084899124121  0.0000
  O3     O3        0.089508422779190    0.796898530710067    0.390570424108703  0.0000
  O1     O1        0.421304400947868    0.252419909058275    0.389644306431698  0.0000
  O1     O1        0.971998088986101    0.037279572968486    0.460605107184942  0.0000
  O3     O3        0.477703124078160    0.029984520847507    0.582821879599668  0.0000
  O1     O1        0.024342844585566    0.012038870033702    0.209222630888885  0.0000
  O1     O1        0.521789164306851    0.981269281401761    0.326987730085069  0.0000
  O1     O1        0.023082397667829    0.985442413418454    0.705586600565348  0.0000
  O3     O3        0.526119641522003    0.003892381199000    0.820245139661349  0.0000
  O1     O1        0.620209765140363    0.164614337605277    0.163943257954504  0.0000
  O1     O1        0.871373745902650    0.924474644526811    0.137466100292849  0.0000
  O1     O1        0.415147063992431    0.254713080582959    0.890500649554336  0.0000
  O1     O1        0.076691774544637    0.789440356649205    0.911724138716674  0.0000
  O1     O1        0.374816446535335    0.907519968731673    0.893457339405692  0.0000
  O1     O1        0.128056012406508    0.132355390657811    0.884739453562345  0.0000
  O3     O3        0.587105117195815    0.803201050665921    0.120522103652448  0.0000
  O1     O1        0.914823875075753    0.266431065466723    0.146093292169784  0.0000
  O1     O1        0.476242650389707    0.050163696632286    0.076715158934143  0.0000
  O1     O1        0.975318141727339    0.056853908150528    0.955667949808052  0.0000
  O3     O3        0.160002410405750    0.498230474148661    0.363384618425510  0.0000
  O1     O1        0.344164769304517    0.566188815237525    0.369382563039322  0.0000
  O3     O3        0.834643780610300    0.521603962131766    0.678875323272838  0.0000
  O1     O1        0.647660694977341    0.463465704670796    0.673307714321256  0.0000
  O1     O1        0.268143478427671    0.252806273264730    0.309784528240814  0.0000
  O3     O3        0.227791087532227    0.790614900343740    0.303629324246800  0.0000
  O3     O3        0.763387485697339    0.236787814033419    0.743217411250552  0.0000
  O1     O1        0.730267923707500    0.775713254823538    0.716413370814024  0.0000
  O1     O1        0.140388272957829    0.261031498311825    0.144997802520766  0.0000
  O1     O1        0.356471272188283    0.784974071617283    0.149365361137510  0.0000
  O3     O3        0.869330092872619    0.379595520835788    0.894352042737771  0.0000
  O3     O3        0.620921464013598    0.656069954552737    0.893350155221482  0.0000
  O1     O1        0.856678266510541    0.778343701846715    0.885033101123304  0.0000
  O1     O1        0.636475401123529    0.259726825051697    0.903004946193880  0.0000
  O3     O3        0.120093336339678    0.660525697573390    0.155988487156773  0.0000
  O1     O1        0.381867898679402    0.386648512170995    0.145387554635031  0.0000
  O3     O3        0.660179670636838    0.511293461140462    0.107365988032528  0.0000
  O1     O1        0.840848986298267    0.578660584258986    0.114761235966218  0.0000
  O1     O1        0.336514525214806    0.565763071738850    0.926408249858957  0.0000
  O1     O1        0.158405770148137    0.483134121275280    0.930439740294645  0.0000
  O1     O1        0.763722259425438    0.256722707818142    0.071771848817556  0.0000
  O3     O3        0.727139664267169    0.802702598443159    0.039861346413483  0.0000
  O1     O1        0.268722839411689    0.246464640970698    0.987905523197049  0.0000
  O1     O1        0.228374814446231    0.807103834022193    0.985132310442641  0.0000
