data_c00842.vasp
_audit_creation_method             Generated by GULP
_audit_author_name                 Salvador R. G. Balestra
_symmetry_space_group_name_H-M     'P 1             '
_symmetry_Int_Tables_number        1

loop_
_symmetry_equiv_pos_site_id
_symmetry_equiv_pos_as_xyz
_cell_length_a                       17.6861
_cell_length_b                        7.8098
_cell_length_c                       10.1321
_cell_angle_alpha                   88.2122
_cell_angle_beta                    90.8158
_cell_angle_gamma                   90.6837

loop_
_atom_site_label
_atom_site_type_symbol
_atom_site_fract_x
_atom_site_fract_y
_atom_site_fract_z
_atom_site_charge
  Ge     Ge        0.052090000000021    0.000000000000000    0.372269999999958  0.0000
  Ge     Ge        0.444430863101343    0.046787828975214    0.338605561482542  0.0000
  Ge     Ge        0.942817068652385    0.065939922814894    0.616255369393383  0.0000
  Ge     Ge        0.550876620450466    0.986842559397794    0.086714989121167  0.0000
  Ge     Ge        0.944012215068651    0.044795793286010    0.120277046216374  0.0000
  Ge     Ge        0.446811446430785    0.053566017344221    0.828753602475687  0.0000
  Ge     Ge        0.048797199446390    0.999330401467461    0.870782168716659  0.0000
  Ge     Ge        0.173082328457129    0.284530214901681    0.261183185417591  0.0000
  Ge     Ge        0.325396286033426    0.759541394045112    0.261071954681019  0.0000
  Ge     Ge        0.842707072015938    0.378987743497083    0.676027978092965  0.0000
  Ge     Ge        0.821818411854385    0.779627831446299    0.693103359460178  0.0000
  Ge     Ge        0.662268802121564    0.314655811194096    0.687622835470529  0.0000
  Ge     Ge        0.144762906400148    0.685275720080570    0.257487648887796  0.0000
  Ge     Ge        0.672141008684801    0.276198237207652    0.007220505593902  0.0000
  Ge     Ge        0.827828726322010    0.752039979202186    0.011296897627200  0.0000
  Ge     Ge        0.352481805924671    0.360880898108803    0.949977516797567  0.0000
  Ge     Ge        0.147441371945799    0.682594047454182    0.935335960071353  0.0000
  Ge     Ge        0.325681488867616    0.769410434772183    0.942006316890264  0.0000
  Ge     Ge        0.174204463570925    0.279417561284472    0.941259944927662  0.0000
  Ge     Ge        0.649545142807402    0.678043799129866    0.022155499624031  0.0000
  Si     Si        0.551035125887785    0.022395764602298    0.585520319562337  0.0000
  Si     Si        0.644157328453277    0.711450051242648    0.707998546612301  0.0000
  Si     Si        0.349238717015969    0.361899057763065    0.263249179047171  0.0000
  Si     Si        0.847211034274892    0.352762766720873    0.992556047801187  0.0000
  O1     O1        0.130549504054860    0.128963152866092    0.356671420691234  0.0000
  O1     O1        0.375547366750423    0.892764774120433    0.361767833480731  0.0000
  O1     O1        0.908525042257928    0.269435262290800    0.590838961223938  0.0000
  O2     O2        0.584897605689310    0.839732417356784    0.635358927215012  0.0000
  O1     O1        0.866381401231306    0.930032131370775    0.595977465286201  0.0000
  O3     O3        0.611276942066111    0.176536346850746    0.590345900207853  0.0000
  O1     O1        0.077036147413865    0.794437043503154    0.338928446047805  0.0000
  O3     O3        0.407119106120288    0.249593361429613    0.352685636279777  0.0000
  O1     O1        0.021284696665465    0.013417866201869    0.532614944306238  0.0000
  O3     O3        0.523859687470769    0.008712355270892    0.434293822775789  0.0000
  O1     O1        0.974524980991011    0.065256901221897    0.280987577493985  0.0000
  O1     O1        0.475472216973857    0.034039063735643    0.178432026500399  0.0000
  O1     O1        0.970506484651686    0.049006405187632    0.780708556390546  0.0000
  O3     O3        0.476126573795569    0.063448339816754    0.665917403786361  0.0000
  O1     O1        0.626469211281363    0.127058051151016    0.102693026761342  0.0000
  O1     O1        0.878139129268257    0.882104112667192    0.113518805681341  0.0000
  O1     O1        0.421489533925872    0.257405430419066    0.870181713349862  0.0000
  O1     O1        0.082691977616809    0.797550751490320    0.843678897515192  0.0000
  O1     O1        0.370876434148017    0.915942204959072    0.841576721622971  0.0000
  O1     O1        0.122554185376022    0.142996492976920    0.847153165817198  0.0000
  O1     O1        0.585644220429223    0.783367970906804    0.113341354759795  0.0000
  O3     O3        0.910905600597649    0.243610387355824    0.067879105118633  0.0000
  O1     O1        0.521852608791355    0.989844450125685    0.923527331969882  0.0000
  O1     O1        0.023186046321914    0.997621997338976    0.034836716438450  0.0000
  O1     O1        0.154143150956711    0.481118386976904    0.323626390923366  0.0000
  O3     O3        0.337663063725125    0.548557026696962    0.319149879068323  0.0000
  O1     O1        0.837793146498022    0.586649767568339    0.621484508195185  0.0000
  O3     O3        0.648322205472259    0.528785946751249    0.638876084201440  0.0000
  O3     O3        0.270038255117102    0.257237533611919    0.258185979734157  0.0000
  O1     O1        0.230045456377759    0.795349661070143    0.264746235044470  0.0000
  O1     O1        0.756478243367053    0.276303963988920    0.667191608592154  0.0000
  O3     O3        0.725343540542203    0.807009483534430    0.704597586621162  0.0000
  O1     O1        0.141692922114588    0.266642015244004    0.100951264361691  0.0000
  O1     O1        0.357782750136512    0.788283184074524    0.102597776451322  0.0000
  O3     O3        0.869295757985582    0.388923347222226    0.841352061826370  0.0000
  O3     O3        0.620584511023802    0.668978157483316    0.857005924828792  0.0000
  O1     O1        0.857474134469698    0.789110376710138    0.852119569235957  0.0000
  O1     O1        0.636500649291672    0.274857887865506    0.847845965583607  0.0000
  O1     O1        0.118375192897313    0.658025751416049    0.096447006435839  0.0000
  O3     O3        0.378960338954469    0.383155410299352    0.114243320535740  0.0000
  O1     O1        0.658059490477717    0.471462986837905    0.076899321215230  0.0000
  O3     O3        0.837959776194799    0.536183919385314    0.057563665622502  0.0000
  O1     O1        0.340470794862866    0.565075328693444    0.888099974558675  0.0000
  O1     O1        0.161716000165935    0.484866596103239    0.875752869082444  0.0000
  O3     O3        0.768767712611490    0.244334456005415    0.998495310184148  0.0000
  O1     O1        0.733418486120741    0.791432845478498    0.024895296293937  0.0000
  O1     O1        0.269697978737623    0.242852257659204    0.939644996039095  0.0000
  O1     O1        0.230216974043652    0.802068877299617    0.940023790754422  0.0000
