data_c00888.vasp
_audit_creation_method             Generated by GULP
_audit_author_name                 Salvador R. G. Balestra
_symmetry_space_group_name_H-M     'P 1             '
_symmetry_Int_Tables_number        1

loop_
_symmetry_equiv_pos_site_id
_symmetry_equiv_pos_as_xyz
_cell_length_a                       17.7835
_cell_length_b                        7.8321
_cell_length_c                       10.3305
_cell_angle_alpha                   90.8076
_cell_angle_beta                    89.6040
_cell_angle_gamma                   89.2234

loop_
_atom_site_label
_atom_site_type_symbol
_atom_site_fract_x
_atom_site_fract_y
_atom_site_fract_z
_atom_site_charge
  Ge     Ge        0.052090000000021    0.000000000000000    0.372269999999958  0.0000
  Ge     Ge        0.447607344151545    0.027265777433980    0.415205779841576  0.0000
  Ge     Ge        0.948504894694065    0.971918609748978    0.628541136217492  0.0000
  Ge     Ge        0.552167036785851    0.020916945320691    0.159566936135541  0.0000
  Ge     Ge        0.948450353747055    0.996761528724634    0.116826149254958  0.0000
  Ge     Ge        0.448308079456912    0.015925113565014    0.906706077806426  0.0000
  Ge     Ge        0.057514110502846    0.995338441025615    0.874461333022456  0.0000
  Ge     Ge        0.169515701450262    0.284948747520178    0.301208346275988  0.0000
  Ge     Ge        0.325945856316091    0.749397666307730    0.302699971358096  0.0000
  Ge     Ge        0.666473841898477    0.711192932824561    0.724997941802003  0.0000
  Ge     Ge        0.848995941323717    0.661635308879848    0.726903619185803  0.0000
  Ge     Ge        0.653140343245736    0.307425321731738    0.733300068041752  0.0000
  Ge     Ge        0.350507355808528    0.339892997000055    0.302852137292822  0.0000
  Ge     Ge        0.645353511355463    0.332836287224204    0.050485262114016  0.0000
  Ge     Ge        0.852338662047018    0.677234135327582    0.039008793534834  0.0000
  Ge     Ge        0.351179306891688    0.337628222226027    0.987753490701202  0.0000
  Ge     Ge        0.325771329471042    0.745451381236543    0.983869788515823  0.0000
  Ge     Ge        0.169920289407908    0.285754066775483    0.989442021768643  0.0000
  Ge     Ge        0.671435154187686    0.737611532877154    0.038338116436288  0.0000
  Ge     Ge        0.824254405607667    0.277529871828413    0.055552675142688  0.0000
  Si     Si        0.553077899695224    0.000567111486330    0.658763046792772  0.0000
  Si     Si        0.830372949478993    0.265353235448066    0.744520779236753  0.0000
  Si     Si        0.152763751354118    0.684560681677565    0.303826792247362  0.0000
  Si     Si        0.151705470175607    0.686167527210988    0.996006320070772  0.0000
  O1     O1        0.119118304788737    0.152551874878572    0.398747279346528  0.0000
  O1     O1        0.373045524884041    0.893531902444580    0.394555825644188  0.0000
  O3     O3        0.880989599723003    0.120462429561299    0.676345990935064  0.0000
  O3     O3        0.612436488023175    0.847619213130247    0.631652987474844  0.0000
  O1     O1        0.909251773542967    0.773557533749510    0.630921297842392  0.0000
  O3     O3        0.596019796706188    0.178092129144992    0.641202794916385  0.0000
  O3     O3        0.089467824573813    0.793471086693696    0.378727364032586  0.0000
  O1     O1        0.414454100712816    0.231209953109361    0.394739860006103  0.0000
  O1     O1        0.976342971782736    0.016349559478850    0.473150886711332  0.0000
  O3     O3        0.479696517314216    0.996135344382769    0.571112691927273  0.0000
  O1     O1        0.021545555524598    0.031970662608543    0.217144266154348  0.0000
  O1     O1        0.522358975589800    0.985325477935690    0.314628772163720  0.0000
  O1     O1        0.030390383295350    0.978784880532259    0.716217435892821  0.0000
  O3     O3        0.524395732363232    0.983275223446442    0.806681935667593  0.0000
  O1     O1        0.577810188356387    0.229794445526140    0.136536670227314  0.0000
  O1     O1        0.913921180636453    0.794398018699121    0.129282211775541  0.0000
  O1     O1        0.413649456025971    0.220330261787596    0.894982080080998  0.0000
  O3     O3        0.086593385246880    0.797012351280526    0.932990241257375  0.0000
  O1     O1        0.373597807554573    0.879928004038600    0.886275545684245  0.0000
  O1     O1        0.124323653179469    0.150025228407799    0.886273716385173  0.0000
  O1     O1        0.629657826020332    0.893915778668217    0.130145332528520  0.0000
  O1     O1        0.874200142961525    0.137170059612222    0.144556645634882  0.0000
  O1     O1        0.478943615274134    0.971234289668983    0.060190412773671  0.0000
  O1     O1        0.978321928493112    0.043716657710195    0.962443586519647  0.0000
  O3     O3        0.158225569090003    0.494947925847592    0.357773580188974  0.0000
  O1     O1        0.343836225063152    0.546524491909045    0.356755190254065  0.0000
  O3     O3        0.842788236977702    0.448970954955686    0.678669845779397  0.0000
  O1     O1        0.653835207345725    0.505992660601546    0.668032267787665  0.0000
  O1     O1        0.264164090898089    0.242093138449253    0.306628759481865  0.0000
  O3     O3        0.230107208250263    0.786880024211165    0.318124917639301  0.0000
  O3     O3        0.742829493360109    0.217238308444416    0.734799158734959  0.0000
  O1     O1        0.760583121844961    0.752844097892363    0.717283204936346  0.0000
  O1     O1        0.138311823950820    0.259559050739644    0.144900432336987  0.0000
  O1     O1        0.351908671075356    0.765364074286822    0.143319130615690  0.0000
  O3     O3        0.851712189075337    0.286189202422196    0.894139884226884  0.0000
  O1     O1        0.637225958662389    0.728193681989179    0.883177432484423  0.0000
  O1     O1        0.884097838098765    0.675852474435962    0.880892501599673  0.0000
  O1     O1        0.620485475514155    0.322523133438165    0.889492338968065  0.0000
  O2     O2        0.136555099402195    0.664638303221341    0.149783577063726  0.0000
  O1     O1        0.382262706650866    0.336517363770523    0.145237478760053  0.0000
  O1     O1        0.654204662516834    0.539428078099441    0.102914247325105  0.0000
  O1     O1        0.841346942151843    0.483320165539108    0.108371673114394  0.0000
  O1     O1        0.344750599067919    0.540107961024201    0.931179123399527  0.0000
  O3     O3        0.156195962964471    0.495315156006545    0.937989437378882  0.0000
  O1     O1        0.731163519820115    0.231195558663719    0.066473196248774  0.0000
  O1     O1        0.765471808541414    0.776951971189445    0.031355911806328  0.0000
  O1     O1        0.264469242262561    0.242507821085627    0.986396383381362  0.0000
  O3     O3        0.229723997541536    0.783663797792268    0.973745771130275  0.0000
