data_c00827.vasp
_audit_creation_method             Generated by GULP
_audit_author_name                 Salvador R. G. Balestra
_symmetry_space_group_name_H-M     'P 1             '
_symmetry_Int_Tables_number        1

loop_
_symmetry_equiv_pos_site_id
_symmetry_equiv_pos_as_xyz
_cell_length_a                       17.6127
_cell_length_b                        7.8153
_cell_length_c                       10.1093
_cell_angle_alpha                   89.7069
_cell_angle_beta                    89.5790
_cell_angle_gamma                   91.4905

loop_
_atom_site_label
_atom_site_type_symbol
_atom_site_fract_x
_atom_site_fract_y
_atom_site_fract_z
_atom_site_charge
  Ge     Ge        0.052090000000021    0.000000000000000    0.372269999999958  0.0000
  Ge     Ge        0.445580159847510    0.065548683777973    0.388069608135876  0.0000
  Ge     Ge        0.945147903530593    0.048075408281409    0.626452413682695  0.0000
  Ge     Ge        0.545301715001303    0.999772598065701    0.127498172815535  0.0000
  Ge     Ge        0.948860869814109    0.065102766824149    0.119280200456021  0.0000
  Ge     Ge        0.446709440404601    0.070215980770222    0.865357959073606  0.0000
  Ge     Ge        0.056695801553699    0.009744661887345    0.870379233962170  0.0000
  Ge     Ge        0.170665754910043    0.296214890986654    0.300594401746957  0.0000
  Ge     Ge        0.324292580004604    0.782607036719499    0.307373706927957  0.0000
  Ge     Ge        0.853906596907745    0.370822036239355    0.739018319433018  0.0000
  Ge     Ge        0.645901682935614    0.697783714962449    0.737105502673498  0.0000
  Ge     Ge        0.670472563962754    0.297637647936906    0.733272666421679  0.0000
  Ge     Ge        0.351653593427035    0.379379232742695    0.305966491319061  0.0000
  Ge     Ge        0.669980826419575    0.287416271895983    0.053790362859731  0.0000
  Ge     Ge        0.822680412868012    0.776649090831211    0.052689075840534  0.0000
  Ge     Ge        0.355215507127890    0.384788466343329    0.984648268728375  0.0000
  Ge     Ge        0.324053887153930    0.788069249996179    0.982744538791304  0.0000
  Ge     Ge        0.172233189119515    0.306048574809101    0.982964543939358  0.0000
  Ge     Ge        0.644705516534418    0.690671973224075    0.059378336578706  0.0000
  Ge     Ge        0.849093512874170    0.373864354962726    0.058974002229643  0.0000
  Si     Si        0.555419683836559    0.010194273235664    0.621753385798644  0.0000
  Si     Si        0.825632966705027    0.765127222222656    0.738593977434908  0.0000
  Si     Si        0.150222330213326    0.693005176208847    0.304876217312619  0.0000
  Si     Si        0.148401787820544    0.702391646793817    0.992470064971703  0.0000
  O1     O1        0.120712232682796    0.156241545474878    0.401109952302198  0.0000
  O1     O1        0.371014970196585    0.921470220026324    0.409930648336826  0.0000
  O1     O1        0.918543625626433    0.255527613674239    0.651399168525073  0.0000
  O3     O3        0.581387051630235    0.819305802938526    0.652956260691887  0.0000
  O3     O3        0.868002265037221    0.912021866026807    0.653926871786211  0.0000
  O3     O3        0.625641459084580    0.140371381464361    0.641018012839879  0.0000
  O3     O3        0.086915358166691    0.794136294606180    0.384117368548107  0.0000
  O1     O1        0.412929068490180    0.268056576942332    0.404355332178395  0.0000
  O1     O1        0.971901806482162    0.025774890063847    0.463086949078562  0.0000
  O3     O3        0.527578082048383    0.019871479528960    0.470383779782124  0.0000
  O1     O1        0.026614799666834    0.022447497454979    0.208850657478445  0.0000
  O1     O1        0.469056580021598    0.042405452048172    0.222158416067850  0.0000
  O1     O1        0.026267495437553    0.995933959820737    0.709453616028973  0.0000
  O3     O3        0.480339579737991    0.061078290718950    0.703817122544103  0.0000
  O1     O1        0.618709934532268    0.146646589325294    0.149454941539949  0.0000
  O1     O1        0.875764046919261    0.916427795824712    0.142466144560690  0.0000
  O1     O1        0.421544209629206    0.277571147440490    0.895406424080601  0.0000
  O3     O3        0.082960800721512    0.807861113450736    0.924705381375392  0.0000
  O1     O1        0.366382153515492    0.942433663498009    0.886191898862657  0.0000
  O1     O1        0.128026812843089    0.162756299590523    0.879997725541029  0.0000
  O1     O1        0.579221780953764    0.797269474841732    0.150664429288510  0.0000
  O1     O1        0.912243894351941    0.262897003586677    0.151521004002442  0.0000
  O1     O1        0.518381691835401    0.005014371367722    0.963381151529360  0.0000
  O1     O1        0.977029036319552    0.065473589519290    0.955525457624950  0.0000
  O3     O3        0.159168801387582    0.503720955501574    0.360830187713682  0.0000
  O1     O1        0.341373897216990    0.579927784264390    0.365801637756942  0.0000
  O3     O3        0.843509358316919    0.578804601299489    0.680038517599820  0.0000
  O1     O1        0.650787366448056    0.496948672733359    0.670552524664684  0.0000
  O1     O1        0.266399876875753    0.264298156751205    0.302026932156696  0.0000
  O3     O3        0.227091161316672    0.808732621167576    0.314404963131929  0.0000
  O1     O1        0.766244054453765    0.269086191045380    0.729638156355212  0.0000
  O3     O3        0.735566724356131    0.794462088919265    0.736017219735352  0.0000
  O1     O1        0.138596311675207    0.272781766329850    0.141104934384486  0.0000
  O1     O1        0.352868531770079    0.805010722098333    0.144704252148007  0.0000
  O1     O1        0.883039005785882    0.385499838035888    0.898782547088989  0.0000
  O1     O1        0.616092352135520    0.673116998559185    0.897005588463826  0.0000
  O3     O3        0.854185653836992    0.776703386608015    0.889361631546869  0.0000
  O1     O1        0.637546508266838    0.280004662355241    0.893056592872329  0.0000
  O2     O2        0.131219188927302    0.670375565334291    0.148688132069271  0.0000
  O1     O1        0.384963484211829    0.395554237237178    0.146095962401485  0.0000
  O1     O1        0.658130878342674    0.490093139311785    0.118256043695804  0.0000
  O1     O1        0.834104838130247    0.573213821430585    0.117315051886309  0.0000
  O1     O1        0.346645777509549    0.589015754806011    0.925257674396478  0.0000
  O3     O3        0.155582730860898    0.515077688131927    0.930364781501429  0.0000
  O1     O1        0.765335244408926    0.253145018613439    0.052463915510497  0.0000
  O1     O1        0.727756232772521    0.814343474143024    0.058814611357688  0.0000
  O1     O1        0.268319176034014    0.278671365488580    0.980471836299155  0.0000
  O3     O3        0.226607882786946    0.811494260636527    0.975730425984479  0.0000
