data_c00817.vasp
_audit_creation_method             Generated by GULP
_audit_author_name                 Salvador R. G. Balestra
_symmetry_space_group_name_H-M     'P 1             '
_symmetry_Int_Tables_number        1

loop_
_symmetry_equiv_pos_site_id
_symmetry_equiv_pos_as_xyz
_cell_length_a                       17.5984
_cell_length_b                        7.8113
_cell_length_c                       10.1921
_cell_angle_alpha                   89.4746
_cell_angle_beta                    90.9191
_cell_angle_gamma                   88.7080

loop_
_atom_site_label
_atom_site_type_symbol
_atom_site_fract_x
_atom_site_fract_y
_atom_site_fract_z
_atom_site_charge
  Ge     Ge        0.052090000000021    0.000000000000000    0.372269999999958  0.0000
  Ge     Ge        0.446144923248248    0.957316774722190    0.411200041595892  0.0000
  Ge     Ge        0.941128567843247    0.970364372582269    0.616433469579429  0.0000
  Ge     Ge        0.554087012977770    0.010357492347991    0.164519987655172  0.0000
  Ge     Ge        0.952425400902655    0.945369646364664    0.109821666863262  0.0000
  Ge     Ge        0.449136174664146    0.943962888360839    0.907339314095612  0.0000
  Ge     Ge        0.056889688814554    0.004053167442730    0.859027380315527  0.0000
  Ge     Ge        0.150689358218128    0.313200659625041    0.298782642620893  0.0000
  Ge     Ge        0.355938691770804    0.637825370312411    0.291250180347005  0.0000
  Ge     Ge        0.824632755417245    0.265756284990272    0.721142834838967  0.0000
  Ge     Ge        0.666648911484975    0.735519034850826    0.732430070592609  0.0000
  Ge     Ge        0.642241008153488    0.335091835215057    0.722272064011603  0.0000
  Ge     Ge        0.173781712173261    0.717304480399804    0.293540688545860  0.0000
  Ge     Ge        0.646927529856975    0.322051465752169    0.041307183849888  0.0000
  Ge     Ge        0.851717782639236    0.635576146480294    0.047485777097132  0.0000
  Ge     Ge        0.324949657199661    0.227802920766589    0.985266901787170  0.0000
  Ge     Ge        0.172927213293659    0.707570036434457    0.977573061263527  0.0000
  Ge     Ge        0.354510863083491    0.628886717722787    0.974893726665517  0.0000
  Ge     Ge        0.674270167341960    0.726466507373655    0.051526990877069  0.0000
  Ge     Ge        0.826351541130274    0.231683649358828    0.037469605870210  0.0000
  Si     Si        0.547855367052223    0.021332420897670    0.660045973565217  0.0000
  Si     Si        0.844785096799682    0.661261210986706    0.734147435799788  0.0000
  Si     Si        0.327849344633419    0.239739784785545    0.296185466853988  0.0000
  Si     Si        0.148607065197681    0.307577843755036    0.986896717319008  0.0000
  O1     O1        0.088523383868951    0.201037611211101    0.391144107863503  0.0000
  O1     O1        0.418612580218561    0.751056200319497    0.385601575558506  0.0000
  O1     O1        0.873545018303105    0.130511305536070    0.620044435551437  0.0000
  O3     O3        0.618415318405568    0.889354645472023    0.639151628399922  0.0000
  O3     O3        0.905975388335303    0.773439834481033    0.659796373815027  0.0000
  O3     O3        0.576793844685525    0.212517166002741    0.637128116335646  0.0000
  O1     O1        0.126139883446644    0.854684076724127    0.394085881040354  0.0000
  O3     O3        0.370735480539867    0.099185024122796    0.386473216765434  0.0000
  O1     O1        0.972210135852951    0.958281211621767    0.456423495924130  0.0000
  O3     O3        0.474554198732535    0.976203791451258    0.574823177355690  0.0000
  O1     O1        0.027669000161371    0.987887064592381    0.207052652627469  0.0000
  O1     O1        0.524236171256856    0.008612667196100    0.323829803648262  0.0000
  O1     O1        0.023806724161134    0.015885883210463    0.699571816495950  0.0000
  O3     O3        0.523803366589642    0.001812702674569    0.812606318438829  0.0000
  O1     O1        0.580043530106816    0.215341120434770    0.126650055583298  0.0000
  O1     O1        0.920586263759390    0.739598286684744    0.131945117860845  0.0000
  O1     O1        0.371051626070423    0.081135779749754    0.892910941888947  0.0000
  O1     O1        0.126550000434911    0.847275057717789    0.872446426603752  0.0000
  O1     O1        0.416783026669068    0.741276655244084    0.880949269096623  0.0000
  O3     O3        0.087720806421734    0.205518201612301    0.902587699408242  0.0000
  O1     O1        0.629969603050162    0.870285728628290    0.150405762750517  0.0000
  O1     O1        0.876890840088727    0.086863213932231    0.130767836291774  0.0000
  O1     O1        0.479154891260508    0.949699415887531    0.068595307915148  0.0000
  O1     O1        0.978950182712996    0.955711364372417    0.948100979596417  0.0000
  O1     O1        0.157892676673406    0.514924198645112    0.355543673404263  0.0000
  O3     O3        0.343374207340851    0.430457136997318    0.348686177619502  0.0000
  O3     O3        0.834801741800304    0.476600585364528    0.667975288616015  0.0000
  O1     O1        0.647225875861067    0.540221638354492    0.663412611379837  0.0000
  O3     O3        0.238329560923395    0.206341351878245    0.299124945538342  0.0000
  O1     O1        0.269811338043205    0.746349882408516    0.292470163718762  0.0000
  O1     O1        0.728888599729743    0.229934764456078    0.716238365455387  0.0000
  O3     O3        0.764129578459952    0.764805966346611    0.731441180584246  0.0000
  O3     O3        0.120738037982847    0.325955276330244    0.135530553773527  0.0000
  O1     O1        0.388416767901769    0.624671258118075    0.134867102365472  0.0000
  O1     O1        0.857770819325321    0.226134414912276    0.877831314311930  0.0000
  O1     O1        0.638823054496818    0.745752485461905    0.892959435513107  0.0000
  O3     O3        0.872600751901427    0.620501725226785    0.881575904134298  0.0000
  O1     O1        0.615782036754883    0.354885916804403    0.882470324290192  0.0000
  O1     O1        0.139973292516077    0.735880727242570    0.133633726033722  0.0000
  O3     O3        0.357318246101356    0.222799288282670    0.147500889636256  0.0000
  O1     O1        0.661831283653392    0.519416819307864    0.106995528128280  0.0000
  O1     O1        0.840503082680313    0.432661737578796    0.103150639931418  0.0000
  O1     O1        0.344401912543249    0.426092102486933    0.919876428881566  0.0000
  O3     O3        0.160178185078275    0.496435071453775    0.928537014911527  0.0000
  O1     O1        0.730173963821954    0.200669740430721    0.038051490939092  0.0000
  O1     O1        0.769884180305476    0.759805299734772    0.054410743707450  0.0000
  O3     O3        0.228034520594030    0.199149659156230    0.984221135454367  0.0000
  O1     O1        0.268614370713442    0.739491445965554    0.976444438513268  0.0000
