data_c00894.vasp
_audit_creation_method             Generated by GULP
_audit_author_name                 Salvador R. G. Balestra
_symmetry_space_group_name_H-M     'P 1             '
_symmetry_Int_Tables_number        1

loop_
_symmetry_equiv_pos_site_id
_symmetry_equiv_pos_as_xyz
_cell_length_a                       17.6712
_cell_length_b                        7.8413
_cell_length_c                        9.9988
_cell_angle_alpha                   91.7535
_cell_angle_beta                    90.5633
_cell_angle_gamma                   91.2713

loop_
_atom_site_label
_atom_site_type_symbol
_atom_site_fract_x
_atom_site_fract_y
_atom_site_fract_z
_atom_site_charge
  Ge     Ge        0.052090000000021    0.000000000000000    0.372269999999958  0.0000
  Ge     Ge        0.444972398433951    0.056936426272544    0.392870402840882  0.0000
  Ge     Ge        0.935886415970776    0.015305003256464    0.613216623695743  0.0000
  Ge     Ge        0.545783313617946    0.995235294858330    0.132597848115755  0.0000
  Ge     Ge        0.949337289112060    0.053582933952520    0.115459633432816  0.0000
  Ge     Ge        0.444540230283307    0.041083438387764    0.867964120044187  0.0000
  Ge     Ge        0.051185848711386    0.986655894422514    0.859842699256218  0.0000
  Ge     Ge        0.169668950376057    0.292636943417024    0.305405799605703  0.0000
  Ge     Ge        0.324314134608848    0.769263832713513    0.310392740141658  0.0000
  Ge     Ge        0.639403790147985    0.666426516003894    0.735183739927098  0.0000
  Ge     Ge        0.823789355522611    0.719386081035482    0.722723491296573  0.0000
  Ge     Ge        0.350380549205320    0.368823628007174    0.315087130832907  0.0000
  Ge     Ge        0.668523668486832    0.283591981434837    0.062904866855265  0.0000
  Ge     Ge        0.825732369793534    0.761748304938152    0.044233301390186  0.0000
  Ge     Ge        0.352182385151433    0.357775127494227    0.989545085022801  0.0000
  Ge     Ge        0.143872800976693    0.679896951791911    0.987193749322210  0.0000
  Ge     Ge        0.323209561014304    0.762335222953438    0.985057292627066  0.0000
  Ge     Ge        0.171553568158739    0.275667439201881    0.981856550215979  0.0000
  Ge     Ge        0.646147307078433    0.687175567975894    0.057458441546659  0.0000
  Ge     Ge        0.845534212970994    0.356698202466289    0.058604497168052  0.0000
  Si     Si        0.552892019364867    0.982099133318083    0.625962142678012  0.0000
  Si     Si        0.838577642780656    0.327686192540100    0.738289093357399  0.0000
  Si     Si        0.661908198517728    0.274368342370185    0.744585348678613  0.0000
  Si     Si        0.148217238913638    0.687906123130108    0.305589535386086  0.0000
  O1     O1        0.118911232034975    0.159369705663800    0.405116209547552  0.0000
  O1     O1        0.370643827600388    0.915291715085679    0.413465293280599  0.0000
  O3     O3        0.893173903395033    0.203901099050917    0.658180671582227  0.0000
  O3     O3        0.577972409082388    0.789142893552984    0.643559723213455  0.0000
  O1     O1        0.871631144709821    0.850106952110707    0.617462173656087  0.0000
  O2     O2        0.621729522657256    0.112616779018229    0.667782294704396  0.0000
  O3     O3        0.090456670660735    0.800050918890894    0.392383421217862  0.0000
  O1     O1        0.412251635373384    0.259187527089790    0.413342183944364  0.0000
  O1     O1        0.968448169293726    0.029268591312500    0.451672868228876  0.0000
  O3     O3        0.528705412381199    0.010374217387810    0.472879530940388  0.0000
  O1     O1        0.028338937130327    0.013127660670276    0.204418078275920  0.0000
  O1     O1        0.468413016963715    0.033198461455170    0.225241355405547  0.0000
  O1     O1        0.019547462231271    0.982114407122611    0.696583446681762  0.0000
  O3     O3        0.475866461704199    0.025252645457306    0.703923191492919  0.0000
  O1     O1        0.614548296568359    0.153391075113043    0.156525020756060  0.0000
  O1     O1        0.877142573183846    0.906478576073167    0.138931336627272  0.0000
  O1     O1        0.418132954693819    0.247847296861076    0.899916536482462  0.0000
  O1     O1        0.075261633493830    0.783400414250736    0.903471916468532  0.0000
  O1     O1        0.367688736398444    0.906512865791995    0.886768835546855  0.0000
  O1     O1        0.127568480167708    0.124445395372978    0.879889093813148  0.0000
  O1     O1        0.586683390265787    0.801520947231444    0.157386284847671  0.0000
  O1     O1        0.913826943978890    0.254587799938822    0.144336125474768  0.0000
  O1     O1        0.518693176819543    0.987042412295010    0.966253564070952  0.0000
  O1     O1        0.974500632130447    0.049910508401113    0.949355647974702  0.0000
  O3     O3        0.159381437440977    0.503022551096497    0.364805640813461  0.0000
  O1     O1        0.341186830396176    0.572414593068889    0.375080862658305  0.0000
  O3     O3        0.837627093040469    0.509660466165800    0.669666845975371  0.0000
  O3     O3        0.640380017440271    0.452191728415837    0.679688215660352  0.0000
  O1     O1        0.264908934673592    0.257088061094823    0.311505708356743  0.0000
  O3     O3        0.227407399544872    0.795582841569312    0.303881272673151  0.0000
  O2     O2        0.752596939513845    0.248640576092584    0.740195046067556  0.0000
  O1     O1        0.728353286975854    0.752699482552391    0.720267306181875  0.0000
  O1     O1        0.138366383325729    0.264023432132041    0.142822602643194  0.0000
  O1     O1        0.355446597809708    0.781515927742933    0.148291461364481  0.0000
  O3     O3        0.867115356526911    0.360066795981644    0.889131255758178  0.0000
  O1     O1        0.609860204401569    0.666469574803283    0.896453326520621  0.0000
  O1     O1        0.857942028182237    0.763066283702576    0.881618734749422  0.0000
  O3     O3        0.636212406035871    0.275056956649507    0.897525665801615  0.0000
  O3     O3        0.118710446993640    0.660455436493670    0.153554130256829  0.0000
  O1     O1        0.382217184861133    0.378915352637392    0.153470302046396  0.0000
  O1     O1        0.659687475771075    0.491627795769005    0.121024844567572  0.0000
  O1     O1        0.836859070837550    0.562774947212743    0.111434560595522  0.0000
  O1     O1        0.339865687883336    0.556678125417017    0.927990503239168  0.0000
  O1     O1        0.154644615657393    0.476626139304409    0.923906748521840  0.0000
  O1     O1        0.762399166853256    0.239300289587920    0.072352781836259  0.0000
  O1     O1        0.730751109302314    0.799605975444789    0.043025402248499  0.0000
  O1     O1        0.267289741244259    0.245416374065747    0.985000932509436  0.0000
  O1     O1        0.227578049603148    0.794507321439475    0.978867399544421  0.0000
