data_c00803.vasp
_audit_creation_method             Generated by GULP
_audit_author_name                 Salvador R. G. Balestra
_symmetry_space_group_name_H-M     'P 1             '
_symmetry_Int_Tables_number        1

loop_
_symmetry_equiv_pos_site_id
_symmetry_equiv_pos_as_xyz
_cell_length_a                       17.5614
_cell_length_b                        7.8696
_cell_length_c                       10.4729
_cell_angle_alpha                   90.5213
_cell_angle_beta                    90.0713
_cell_angle_gamma                   90.3556

loop_
_atom_site_label
_atom_site_type_symbol
_atom_site_fract_x
_atom_site_fract_y
_atom_site_fract_z
_atom_site_charge
  Ge     Ge        0.052090000000021    0.000000000000000    0.372269999999958  0.0000
  Ge     Ge        0.456888947168334    0.041965445265370    0.409822201325538  0.0000
  Ge     Ge        0.950053816276321    0.021109666129237    0.627729419902763  0.0000
  Ge     Ge        0.566321814854021    0.039296506796561    0.163139301545350  0.0000
  Ge     Ge        0.951309936381406    0.050972601916450    0.111472715626939  0.0000
  Ge     Ge        0.455544948732665    0.036223712412284    0.913989496392285  0.0000
  Ge     Ge        0.062215699616277    0.003768240185811    0.869992948905858  0.0000
  Ge     Ge        0.176689493909523    0.279960289821204    0.297889459017325  0.0000
  Ge     Ge        0.332931693732505    0.758522332752083    0.300482313015377  0.0000
  Ge     Ge        0.837759042872702    0.323600990032679    0.747678878958637  0.0000
  Ge     Ge        0.664776662532218    0.752751467676452    0.741280981205246  0.0000
  Ge     Ge        0.655573848372285    0.346155416618026    0.745812600622753  0.0000
  Ge     Ge        0.152119601039720    0.684180909561318    0.303710756749140  0.0000
  Ge     Ge        0.358446642646712    0.353024519663103    0.300334839582364  0.0000
  Ge     Ge        0.658523602203176    0.366480263801662    0.060113845472612  0.0000
  Ge     Ge        0.362099246637009    0.359395023604623    0.991013628230971  0.0000
  Ge     Ge        0.149266204023095    0.684261150155193    0.992098734305104  0.0000
  Ge     Ge        0.331083734545282    0.760537877515148    0.989733898668069  0.0000
  Ge     Ge        0.180090115336414    0.282084141070290    0.988174583717972  0.0000
  Ge     Ge        0.839967191532464    0.352350562771531    0.058769037224047  0.0000
  Si     Si        0.555879545046730    0.035272963600436    0.663161978780223  0.0000
  Si     Si        0.847833524144232    0.723734419119147    0.736835363262705  0.0000
  Si     Si        0.849986769777906    0.739961573229422    0.029244622601857  0.0000
  Si     Si        0.670117124444837    0.758610342175768    0.039860365640578  0.0000
  O1     O1        0.125534224460763    0.144656420248747    0.391428306886866  0.0000
  O1     O1        0.382993549908261    0.901019576554441    0.391571704425135  0.0000
  O1     O1        0.895831369276148    0.195012981287942    0.660833076519941  0.0000
  O3     O3        0.621557992307399    0.894943478320308    0.640833622596962  0.0000
  O3     O3        0.897550283891000    0.835464299635306    0.642712293156318  0.0000
  O3     O3        0.592975533816044    0.221536168091288    0.658009325403265  0.0000
  O1     O1        0.087977105500572    0.799103765348523    0.391614532285938  0.0000
  O1     O1        0.424329921001674    0.243988775593599    0.387275236638152  0.0000
  O1     O1        0.976760650057903    0.035974663685151    0.470169921297505  0.0000
  O3     O3        0.486799359552268    0.020277587431140    0.566262427613923  0.0000
  O1     O1        0.023682782635396    0.019265817444307    0.214948781791687  0.0000
  O1     O1        0.533994101311959    0.002567367048945    0.314404687159498  0.0000
  O1     O1        0.032730811098916    0.011631515540892    0.713829067900584  0.0000
  O3     O3        0.524299863172831    0.992803058843821    0.803788370346966  0.0000
  O1     O1        0.597637990331917    0.245462211696365    0.148782695302820  0.0000
  O3     O3        0.889242283109385    0.876352293017653    0.118913999851553  0.0000
  O1     O1        0.426935472670711    0.244197893907941    0.904128495416279  0.0000
  O1     O1        0.082567124608094    0.797465643437575    0.909869811276834  0.0000
  O1     O1        0.377678917380646    0.904657517847823    0.897325001380771  0.0000
  O1     O1        0.140468562919779    0.132321376192402    0.889116621780611  0.0000
  O3     O3        0.642527574055388    0.901930787794365    0.136520118743446  0.0000
  O1     O1        0.898309011567808    0.227191536092697    0.147978371802640  0.0000
  O1     O1        0.492091483298904    0.995223067071329    0.062884696868159  0.0000
  O1     O1        0.988822167228956    0.079638325924804    0.962126393107534  0.0000
  O1     O1        0.163929879094078    0.483202711029119    0.358618657158156  0.0000
  O1     O1        0.345779478518113    0.555138829418752    0.357179942931159  0.0000
  O3     O3        0.872882954547803    0.529401269662105    0.732951521050826  0.0000
  O1     O1        0.627391015534173    0.552945296207279    0.727008168045157  0.0000
  O1     O1        0.273067142925755    0.243075988586873    0.300400947676405  0.0000
  O1     O1        0.236915010245279    0.796616251476676    0.304300450714870  0.0000
  O1     O1        0.746220280171461    0.315884266704053    0.689984089446760  0.0000
  O3     O3        0.759648149021354    0.738889253406542    0.699983154485523  0.0000
  O1     O1        0.145724267116951    0.265791311102805    0.141591469398856  0.0000
  O1     O1        0.362977210602611    0.770562973442265    0.145050037204931  0.0000
  O1     O1        0.834966424117089    0.270243824363658    0.905435247778845  0.0000
  O3     O3        0.656255758180848    0.824363604729149    0.897311267024677  0.0000
  O2     O2        0.862675753931165    0.797469508978159    0.881581869630968  0.0000
  O1     O1        0.653202860091285    0.294114430208846    0.904736515014598  0.0000
  O1     O1        0.121413445667848    0.667195635997949    0.147821130877033  0.0000
  O1     O1        0.392749437169737    0.365363177130060    0.146982492204725  0.0000
  O3     O3        0.628985642027699    0.577889474797314    0.062275926121038  0.0000
  O3     O3        0.881988021304822    0.552845823182607    0.053367365642667  0.0000
  O1     O1        0.349808225716574    0.558001185353951    0.932096521762540  0.0000
  O1     O1        0.161126139463075    0.483076790415929    0.931568256176507  0.0000
  O1     O1        0.749342626021539    0.348438660970187    0.118774392394300  0.0000
  O2     O2        0.759798570593286    0.716450641901986    0.055165218244105  0.0000
  O1     O1        0.276380727653039    0.251852823390351    0.992577362202094  0.0000
  O1     O1        0.234929783554314    0.793025614464096    0.986275416567649  0.0000
