data_c00810.vasp
_audit_creation_method             Generated by GULP
_audit_author_name                 Salvador R. G. Balestra
_symmetry_space_group_name_H-M     'P 1             '
_symmetry_Int_Tables_number        1

loop_
_symmetry_equiv_pos_site_id
_symmetry_equiv_pos_as_xyz
_cell_length_a                       17.6423
_cell_length_b                        7.8014
_cell_length_c                       10.2151
_cell_angle_alpha                   89.4920
_cell_angle_beta                    90.2174
_cell_angle_gamma                   89.0936

loop_
_atom_site_label
_atom_site_type_symbol
_atom_site_fract_x
_atom_site_fract_y
_atom_site_fract_z
_atom_site_charge
  Ge     Ge        0.052090000000021    0.000000000000000    0.372269999999958  0.0000
  Ge     Ge        0.450488659853569    0.956840166097969    0.369193247317329  0.0000
  Ge     Ge        0.946329774911805    0.962571848554667    0.626091178800844  0.0000
  Ge     Ge        0.556729970982044    0.005355647496477    0.119137570688483  0.0000
  Ge     Ge        0.944808750091903    0.946880183938526    0.125402246759904  0.0000
  Ge     Ge        0.450079784444472    0.947131695113184    0.866978065415162  0.0000
  Ge     Ge        0.052600052120389    0.011886061577309    0.880197921382316  0.0000
  Ge     Ge        0.146586186666047    0.314856207815244    0.254389842877777  0.0000
  Ge     Ge        0.356147869415599    0.641135079381720    0.252762898680016  0.0000
  Ge     Ge        0.826389805028802    0.254075221732210    0.684990165130443  0.0000
  Ge     Ge        0.667843162645303    0.726365810921628    0.695535735387586  0.0000
  Ge     Ge        0.646630676415973    0.323832943340280    0.682946605904659  0.0000
  Ge     Ge        0.175525903125989    0.719920624470266    0.258043220439900  0.0000
  Ge     Ge        0.326273852948374    0.236374468110336    0.261033785668940  0.0000
  Ge     Ge        0.852370220643122    0.635292672395088    0.004718860531496  0.0000
  Ge     Ge        0.327198885792505    0.232219005224905    0.943519667944063  0.0000
  Ge     Ge        0.172743150832259    0.715178998637928    0.941587308010990  0.0000
  Ge     Ge        0.351766489892495    0.633882333014452    0.932523633453969  0.0000
  Ge     Ge        0.672687445014675    0.711496115971936    0.011866573605480  0.0000
  Ge     Ge        0.824666914248144    0.231727151925648    0.003471487341626  0.0000
  Si     Si        0.551593076978962    0.011497103085808    0.619619113495705  0.0000
  Si     Si        0.845302495014323    0.651271708745371    0.692777680565340  0.0000
  Si     Si        0.649030021342602    0.314098352598797    0.996542892230573  0.0000
  Si     Si        0.152076503206149    0.318387015263264    0.942711880839884  0.0000
  O1     O1        0.076651350709644    0.207010341276939    0.333693187004000  0.0000
  O1     O1        0.425282575977499    0.750895668909614    0.333728884734739  0.0000
  O1     O1        0.880618859952500    0.122008045913419    0.590047282955012  0.0000
  O3     O3        0.621863541129063    0.879514885792834    0.600257472958363  0.0000
  O3     O3        0.903859375646185    0.764116124618658    0.611122615309584  0.0000
  O3     O3        0.580263959434155    0.204634834561674    0.599615425997625  0.0000
  O1     O1        0.128926239711898    0.866976341732994    0.352161187753197  0.0000
  O1     O1        0.372498465587092    0.088282029882184    0.357457922064442  0.0000
  O1     O1        0.025682311003216    0.983287351453702    0.534151573422397  0.0000
  O3     O3        0.480654956736913    0.965520901840241    0.531612205432920  0.0000
  O1     O1        0.972142285975416    0.944615559158204    0.286676639799825  0.0000
  O1     O1        0.525512836468196    0.023366227959672    0.277278532676866  0.0000
  O1     O1        0.974025713238982    0.985700449893552    0.787005752922511  0.0000
  O3     O3        0.526213001862181    0.994790621821728    0.771376002269041  0.0000
  O3     O3        0.585657332242240    0.207463551303482    0.070500226849030  0.0000
  O1     O1        0.922865195310401    0.740459708885901    0.082520815378626  0.0000
  O1     O1        0.374680943041140    0.088637260538090    0.848961539482737  0.0000
  O1     O1        0.118251700982485    0.852045122598844    0.848647893351198  0.0000
  O1     O1        0.415684225965775    0.745558085922772    0.841197614630442  0.0000
  O3     O3        0.093352672697184    0.211935845640089    0.857298524444350  0.0000
  O1     O1        0.626501582248796    0.849880011279122    0.113620031316070  0.0000
  O1     O1        0.866603518387912    0.077211487530372    0.099033170792346  0.0000
  O1     O1        0.479870495984095    0.949980597233749    0.027550236093046  0.0000
  O1     O1        0.022760274872793    0.012387462550541    0.040528699379983  0.0000
  O1     O1        0.158361654376477    0.516100833729348    0.316310820179115  0.0000
  O1     O1        0.342998580986792    0.439986684256887    0.317203398899903  0.0000
  O3     O3        0.834971518041563    0.465484218455509    0.630688494236603  0.0000
  O1     O1        0.649216162715484    0.530236593214440    0.626764343159851  0.0000
  O1     O1        0.230566008251560    0.200965616291894    0.266319216383818  0.0000
  O1     O1        0.271340236637541    0.754093957635600    0.259439928972380  0.0000
  O1     O1        0.731418893476924    0.215037411158674    0.670934373114580  0.0000
  O3     O3        0.765025590515373    0.754096980380373    0.697494379967510  0.0000
  O3     O3        0.123192102841828    0.344515007152286    0.090762401711898  0.0000
  O1     O1        0.381558844892821    0.614386197799106    0.092746044895421  0.0000
  O1     O1        0.855107766259434    0.220695313742397    0.844399709139352  0.0000
  O1     O1        0.638619531165711    0.742529874048874    0.855329970746260  0.0000
  O3     O3        0.874855128375726    0.619944802741278    0.840178636234226  0.0000
  O3     O3        0.624589167360238    0.348243110920698    0.846864368650873  0.0000
  O1     O1        0.142289334971025    0.739822048237134    0.099895385094794  0.0000
  O1     O1        0.358736807056493    0.216266704593038    0.102775861550285  0.0000
  O3     O3        0.660321534734912    0.499042927883234    0.061049205618985  0.0000
  O1     O1        0.845153248915075    0.430648803714125    0.064422921654901  0.0000
  O1     O1        0.342168596734032    0.431694300280571    0.875263433764970  0.0000
  O3     O3        0.164331564174883    0.506150447126838    0.883489968774888  0.0000
  O3     O3        0.727276091624383    0.204515465877757    0.001480205945672  0.0000
  O1     O1        0.768118778946674    0.746790184972973    0.019441141926654  0.0000
  O3     O3        0.229917264538082    0.205884995800115    0.948597887970076  0.0000
  O1     O1        0.267852393336001    0.751969902390709    0.933807561118347  0.0000
