data_c00892.vasp
_audit_creation_method             Generated by GULP
_audit_author_name                 Salvador R. G. Balestra
_symmetry_space_group_name_H-M     'P 1             '
_symmetry_Int_Tables_number        1

loop_
_symmetry_equiv_pos_site_id
_symmetry_equiv_pos_as_xyz
_cell_length_a                       17.6621
_cell_length_b                        7.8024
_cell_length_c                       10.0908
_cell_angle_alpha                   90.3121
_cell_angle_beta                    90.3108
_cell_angle_gamma                   90.8043

loop_
_atom_site_label
_atom_site_type_symbol
_atom_site_fract_x
_atom_site_fract_y
_atom_site_fract_z
_atom_site_charge
  Ge     Ge        0.052090000000021    0.000000000000000    0.372269999999958  0.0000
  Ge     Ge        0.439799472529844    0.049315663733322    0.423697741785533  0.0000
  Ge     Ge        0.938301522155271    0.039408756895097    0.616051741834039  0.0000
  Ge     Ge        0.550494187084238    0.001475695769105    0.175762204752708  0.0000
  Ge     Ge        0.948181918075681    0.061090292444635    0.117521827554560  0.0000
  Ge     Ge        0.448102202224595    0.062552406207318    0.915873659403628  0.0000
  Ge     Ge        0.050441392903122    0.002544423231845    0.863215043651091  0.0000
  Ge     Ge        0.171086384850032    0.290628025307586    0.303434538547840  0.0000
  Ge     Ge        0.324143343937187    0.756869786340428    0.311479311658359  0.0000
  Ge     Ge        0.640310801609520    0.680716783323370    0.727950422118552  0.0000
  Ge     Ge        0.821988626039855    0.746555499552892    0.725955534017885  0.0000
  Ge     Ge        0.665107622061192    0.279533363527563    0.737749189056796  0.0000
  Ge     Ge        0.670917059394268    0.284430120359649    0.059914213622657  0.0000
  Ge     Ge        0.823310572336549    0.776344286525356    0.045081907397585  0.0000
  Ge     Ge        0.348886763881214    0.372906079831087    0.985916745782084  0.0000
  Ge     Ge        0.145783806440432    0.695160255634123    0.993304167631390  0.0000
  Ge     Ge        0.323934062897476    0.780529027534458    0.992428204318146  0.0000
  Ge     Ge        0.171518062687853    0.286610246891498    0.982678950639953  0.0000
  Ge     Ge        0.644767091439856    0.690416517259743    0.049982267753255  0.0000
  Ge     Ge        0.847570204026251    0.370240884029445    0.054374353087034  0.0000
  Si     Si        0.547335858971758    0.997223676980214    0.666283621608453  0.0000
  Si     Si        0.842578799472036    0.349005331562425    0.737906120778522  0.0000
  Si     Si        0.146991858681366    0.684506900360236    0.308511165812253  0.0000
  Si     Si        0.348404212249206    0.361085390878003    0.302348438941466  0.0000
  O1     O1        0.123056927117505    0.149539509002640    0.401484027148634  0.0000
  O1     O1        0.367778781420698    0.900711284083776    0.415347061363516  0.0000
  O3     O3        0.902941744639541    0.237810835907270    0.658135319564182  0.0000
  O3     O3        0.575755068463684    0.805110150583340    0.641234003855929  0.0000
  O1     O1        0.870597388027337    0.881289614576269    0.623036759529235  0.0000
  O3     O3        0.617528208108608    0.127554234206625    0.642854263083704  0.0000
  O3     O3        0.088646165249193    0.796177320294562    0.393353820641319  0.0000
  O3     O3        0.408786574443012    0.251804009989318    0.384038904908744  0.0000
  O1     O1        0.970647092692344    0.041598141646898    0.454648406651210  0.0000
  O3     O3        0.472625947366610    0.047819801805479    0.587020545603652  0.0000
  O1     O1        0.026430009444978    0.015151649490368    0.206804166133868  0.0000
  O1     O1        0.518272787582442    0.996901903088062    0.335756991745271  0.0000
  O1     O1        0.020158855161539    0.995743699575710    0.701218732202581  0.0000
  O3     O3        0.525324421984034    0.014150758560951    0.822024190301559  0.0000
  O1     O1        0.625090010298751    0.143240875746621    0.160859958584378  0.0000
  O1     O1        0.874564056141133    0.916841511748564    0.140038750844737  0.0000
  O1     O1        0.414947816828481    0.267039599285084    0.894887172381900  0.0000
  O1     O1        0.076940792034434    0.799345818492440    0.909259215565605  0.0000
  O1     O1        0.374371923252674    0.917935541861794    0.895444920088187  0.0000
  O1     O1        0.124723008686030    0.145274948978793    0.880811536889234  0.0000
  O1     O1        0.578130052187087    0.796880282757224    0.137786725800940  0.0000
  O1     O1        0.914996884722360    0.265501322218802    0.142752745818016  0.0000
  O1     O1        0.475569178143491    0.059140414460164    0.079531750734050  0.0000
  O1     O1        0.973110123649078    0.060121235082964    0.952422441267497  0.0000
  O3     O3        0.155255668502738    0.495419040936198    0.366226142815122  0.0000
  O3     O3        0.340366097141871    0.549520236571333    0.365507433196732  0.0000
  O3     O3        0.832435615261395    0.535302057117286    0.673142713616362  0.0000
  O1     O1        0.645994525568827    0.475815993962203    0.668309004568724  0.0000
  O3     O3        0.267975677368925    0.259608375674888    0.304765894759742  0.0000
  O3     O3        0.227384976844019    0.785937114157311    0.308549650791824  0.0000
  O3     O3        0.762094375296989    0.247475985799612    0.736398789928727  0.0000
  O1     O1        0.726709709420617    0.784570249462503    0.722448993999258  0.0000
  O1     O1        0.139672228379007    0.265932156369726    0.143071708454571  0.0000
  O1     O1        0.356569953542181    0.793243468424720    0.154115786936184  0.0000
  O3     O3        0.870489993144822    0.383977813042413    0.886970667913787  0.0000
  O1     O1        0.613505533408911    0.660308405360790    0.890025638340521  0.0000
  O1     O1        0.855296987324158    0.783491722053224    0.883744686595631  0.0000
  O1     O1        0.636560728531606    0.268481078121317    0.899927131372449  0.0000
  O3     O3        0.119178097941010    0.665940097210642    0.156897559475973  0.0000
  O3     O3        0.375132966819295    0.388092193557914    0.152329174515271  0.0000
  O1     O1        0.659872153176616    0.492201737804834    0.115712575528915  0.0000
  O1     O1        0.836076752574497    0.573539182904672    0.109779839494983  0.0000
  O1     O1        0.336524261032195    0.575409126982741    0.930925187005013  0.0000
  O1     O1        0.158491081446999    0.494262144367028    0.929599436387634  0.0000
  O1     O1        0.766095676613092    0.247019684165238    0.061776616334221  0.0000
  O1     O1        0.727662221027781    0.810952261143063    0.046211007652089  0.0000
  O1     O1        0.266957955550456    0.251137662660871    0.979473307264598  0.0000
  O1     O1        0.228318414048165    0.815799530254974    0.988158498623294  0.0000
