data_c00860.vasp
_audit_creation_method             Generated by GULP
_audit_author_name                 Salvador R. G. Balestra
_symmetry_space_group_name_H-M     'P 1             '
_symmetry_Int_Tables_number        1

loop_
_symmetry_equiv_pos_site_id
_symmetry_equiv_pos_as_xyz
_cell_length_a                       17.6974
_cell_length_b                        7.7908
_cell_length_c                       10.1076
_cell_angle_alpha                   89.7340
_cell_angle_beta                    90.9159
_cell_angle_gamma                   91.4806

loop_
_atom_site_label
_atom_site_type_symbol
_atom_site_fract_x
_atom_site_fract_y
_atom_site_fract_z
_atom_site_charge
  Ge     Ge        0.052090000000021    0.000000000000000    0.372269999999958  0.0000
  Ge     Ge        0.452340454825030    0.053240379267101    0.383500769241758  0.0000
  Ge     Ge        0.939099576105030    0.060708856174635    0.609594186335736  0.0000
  Ge     Ge        0.550401568360714    0.004797807909444    0.118607093238925  0.0000
  Ge     Ge        0.952182659457805    0.069924257396770    0.113492404905310  0.0000
  Ge     Ge        0.444011136454702    0.062333941918659    0.859525210686546  0.0000
  Ge     Ge        0.051777872030448    0.003136622291681    0.857863289895681  0.0000
  Ge     Ge        0.176256188756490    0.282202182870519    0.299355640295823  0.0000
  Ge     Ge        0.327674104975639    0.774490181481019    0.301635317863256  0.0000
  Ge     Ge        0.842651222834075    0.371888621487406    0.727085315287882  0.0000
  Ge     Ge        0.821129038721224    0.771996637624352    0.726429899571448  0.0000
  Ge     Ge        0.149119482104367    0.686268999859038    0.304686880081667  0.0000
  Ge     Ge        0.355566473904960    0.366898040033889    0.300791438874725  0.0000
  Ge     Ge        0.670749782223987    0.303801847506255    0.053718369870163  0.0000
  Ge     Ge        0.826424904367163    0.782078802242124    0.048100204487060  0.0000
  Ge     Ge        0.353865563997394    0.373741646457161    0.980059815590265  0.0000
  Ge     Ge        0.143722541381486    0.689780788600714    0.982564826590172  0.0000
  Ge     Ge        0.322847467413023    0.780505150879944    0.979885554541663  0.0000
  Ge     Ge        0.174190604874415    0.285688944704891    0.978178284077928  0.0000
  Ge     Ge        0.848963788018924    0.377819989041668    0.055560302151703  0.0000
  Si     Si        0.554999591257649    0.011957519875236    0.628714916004965  0.0000
  Si     Si        0.643637602067349    0.702297118856483    0.745747741927395  0.0000
  Si     Si        0.663762670240765    0.308881962359536    0.738621316705918  0.0000
  Si     Si        0.651686924158520    0.704808130949183    0.053299756145890  0.0000
  O1     O1        0.125914642428863    0.144266320123438    0.398750998513335  0.0000
  O1     O1        0.378271108802410    0.909156280850226    0.404722633251209  0.0000
  O1     O1        0.908262939376746    0.262683930256185    0.641551803482163  0.0000
  O2     O2        0.584070584675366    0.822492144082012    0.668565199668691  0.0000
  O1     O1        0.861894801348793    0.927426122718835    0.630657657058388  0.0000
  O2     O2        0.615876516617222    0.166639525285489    0.655031378110206  0.0000
  O1     O1        0.084896491226277    0.796830060388931    0.395533652933434  0.0000
  O1     O1        0.419552929321936    0.257085542643838    0.396431322452985  0.0000
  O1     O1        0.970289451647469    0.047000046883175    0.449309420676060  0.0000
  O3     O3        0.533555290143455    0.012978485780266    0.474110102165058  0.0000
  O1     O1        0.029068472206944    0.019188826221065    0.204729625177523  0.0000
  O1     O1        0.476595162291524    0.023084619816332    0.220103403862179  0.0000
  O1     O1        0.019209679356275    0.006090509829475    0.696455583727078  0.0000
  O3     O3        0.475983070793395    0.047460007827027    0.698341985991816  0.0000
  O1     O1        0.615677743261919    0.170260705338654    0.145831093089134  0.0000
  O1     O1        0.876986787590666    0.928131467179868    0.138343048853077  0.0000
  O1     O1        0.418214254312749    0.269806334745641    0.887314847594240  0.0000
  O1     O1        0.075302775638840    0.795788336032693    0.896122514081968  0.0000
  O1     O1        0.366434820829467    0.929023724072923    0.880499128662620  0.0000
  O1     O1        0.129240764855339    0.137882090303748    0.878110491045582  0.0000
  O3     O3        0.593210174850457    0.806682469212834    0.138671223625922  0.0000
  O1     O1        0.917856118220106    0.271546192114249    0.139967452992402  0.0000
  O1     O1        0.518476123082112    0.007535249171902    0.958059481420599  0.0000
  O1     O1        0.977269112430801    0.067421669538343    0.949214522985192  0.0000
  O1     O1        0.163879794315347    0.485230836379571    0.363766941494520  0.0000
  O1     O1        0.340603001846059    0.567369647802500    0.358603843538495  0.0000
  O1     O1        0.840873060421339    0.575411530346741    0.663060619347543  0.0000
  O2     O2        0.644104991495248    0.505290143233868    0.691251570528701  0.0000
  O1     O1        0.271416293791843    0.247611982143277    0.298712247332549  0.0000
  O1     O1        0.232203091366890    0.808047308310200    0.303856943114178  0.0000
  O3     O3        0.751889240419261    0.279104712020959    0.718523107503279  0.0000
  O3     O3        0.724297440021181    0.793128982387037    0.727527782976015  0.0000
  O1     O1        0.142684310013603    0.269482122804235    0.138255715209004  0.0000
  O1     O1        0.356701460008246    0.794177401157064    0.140033196353287  0.0000
  O1     O1        0.869268912870807    0.388182906576487    0.889341148082172  0.0000
  O2     O2        0.622493220841356    0.690752936006532    0.899866214932929  0.0000
  O1     O1        0.854877535610203    0.794404610645628    0.885677481631520  0.0000
  O3     O3        0.641213197323109    0.284190430885626    0.889856480174342  0.0000
  O1     O1        0.116909121855279    0.665425184606931    0.144015596506154  0.0000
  O1     O1        0.386909614355681    0.383536253677152    0.140933277665023  0.0000
  O3     O3        0.662458794879371    0.514693144676232    0.107584016449892  0.0000
  O1     O1        0.843145914309365    0.581514460239917    0.112849093201368  0.0000
  O1     O1        0.338805914268314    0.576412820209500    0.922127842806952  0.0000
  O1     O1        0.156392089220348    0.489369567455990    0.919066904099221  0.0000
  O1     O1        0.764563838244317    0.262443700690099    0.067638499386954  0.0000
  O3     O3        0.730279463868973    0.814016867627277    0.053148182972443  0.0000
  O1     O1        0.269716064717534    0.256863547038142    0.979393199489530  0.0000
  O1     O1        0.227092485921593    0.809131401484852    0.978765479839288  0.0000
