data_c00899.vasp
_audit_creation_method             Generated by GULP
_audit_author_name                 Salvador R. G. Balestra
_symmetry_space_group_name_H-M     'P 1             '
_symmetry_Int_Tables_number        1

loop_
_symmetry_equiv_pos_site_id
_symmetry_equiv_pos_as_xyz
_cell_length_a                       17.5838
_cell_length_b                        7.8229
_cell_length_c                       10.1360
_cell_angle_alpha                   89.6609
_cell_angle_beta                    90.3447
_cell_angle_gamma                   88.2099

loop_
_atom_site_label
_atom_site_type_symbol
_atom_site_fract_x
_atom_site_fract_y
_atom_site_fract_z
_atom_site_charge
  Ge     Ge        0.052090000000021    0.000000000000000    0.372269999999958  0.0000
  Ge     Ge        0.445020324958642    0.953082964451892    0.368607372674637  0.0000
  Ge     Ge        0.938894609061969    0.958924820585560    0.620025562501069  0.0000
  Ge     Ge        0.554288461802596    0.008374949400748    0.120856005302180  0.0000
  Ge     Ge        0.948291409829208    0.945036875334668    0.116297487204250  0.0000
  Ge     Ge        0.451643989017733    0.942810351356970    0.862892787669284  0.0000
  Ge     Ge        0.050503529953088    0.009801768324805    0.865160348892707  0.0000
  Ge     Ge        0.147581649094561    0.313470683236531    0.254282930353008  0.0000
  Ge     Ge        0.356805250512118    0.631881827655028    0.252661077905201  0.0000
  Ge     Ge        0.665141093127888    0.719764459513448    0.685867445472417  0.0000
  Ge     Ge        0.645114151992520    0.322705468804987    0.675980062084071  0.0000
  Ge     Ge        0.174070116844171    0.713339170889417    0.257497851601674  0.0000
  Ge     Ge        0.645157161295693    0.320980674337828    0.998689403465331  0.0000
  Ge     Ge        0.855246775392538    0.638299102923918    0.994324211506388  0.0000
  Ge     Ge        0.326700995902943    0.229438356982709    0.940892095428593  0.0000
  Ge     Ge        0.174546835148367    0.721734682826298    0.938218677832096  0.0000
  Ge     Ge        0.354571865701743    0.633768357121146    0.934764011461439  0.0000
  Ge     Ge        0.148146869404011    0.319261535852648    0.933024601807710  0.0000
  Ge     Ge        0.674568955874240    0.722703785414979    0.005683927898826  0.0000
  Ge     Ge        0.825038053763425    0.232660320452557    0.993625965795448  0.0000
  Si     Si        0.550142639482949    0.010889056319997    0.613102693258282  0.0000
  Si     Si        0.823794609725745    0.254435916769484    0.680013242061865  0.0000
  Si     Si        0.844836546707327    0.645763093609941    0.684125990700751  0.0000
  Si     Si        0.326898935990316    0.236480795220663    0.253445749995276  0.0000
  O1     O1        0.082670507021445    0.202684552808136    0.341995902119450  0.0000
  O1     O1        0.419309325939148    0.745778744630578    0.345955977760396  0.0000
  O3     O3        0.871992845831408    0.124285378232896    0.589704107362260  0.0000
  O3     O3        0.618389164040320    0.872282106846134    0.589048327001363  0.0000
  O3     O3        0.897735972666951    0.761970744197860    0.593917824068134  0.0000
  O3     O3        0.582619444324101    0.198044722265089    0.589129289324945  0.0000
  O1     O1        0.128767241095580    0.862776842915234    0.353456406747422  0.0000
  O3     O3        0.367976863600719    0.091376945939362    0.342718554419737  0.0000
  O1     O1        0.019655963325141    0.986383154756331    0.532231938206493  0.0000
  O3     O3        0.474527028330758    0.975024875595717    0.532109812806841  0.0000
  O1     O1        0.973863104263620    0.950166245387377    0.279856747319418  0.0000
  O1     O1        0.523538626762821    0.004868370240304    0.280865897888095  0.0000
  O1     O1        0.969624147532532    0.966125370429746    0.781622368685595  0.0000
  O3     O3        0.528052753268535    0.992686819323061    0.767730229412915  0.0000
  O1     O1        0.576936454669011    0.214837014285486    0.081661128077688  0.0000
  O1     O1        0.924732584219721    0.738346809224753    0.078962761687709  0.0000
  O1     O1        0.377939379603400    0.091333403644514    0.845610436376525  0.0000
  O1     O1        0.123702371901111    0.862512857516681    0.840678809514211  0.0000
  O1     O1        0.416618118472531    0.742812764728362    0.837738076700424  0.0000
  O1     O1        0.084146462659262    0.211350454384284    0.839435766301222  0.0000
  O1     O1        0.632479231682316    0.873623817104114    0.103724752351998  0.0000
  O1     O1        0.870976150193770    0.079915391967504    0.085950519001846  0.0000
  O1     O1        0.480556023238092    0.942780730715578    0.025223964984394  0.0000
  O1     O1        0.026093356754793    0.005480299655132    0.030492982878800  0.0000
  O1     O1        0.155911413784857    0.513275875700110    0.319072000483230  0.0000
  O3     O3        0.344902240298534    0.424147405323533    0.309052202252639  0.0000
  O2     O2        0.835218888727869    0.451725628975810    0.631772571530576  0.0000
  O1     O1        0.645975419649825    0.526011000457110    0.614902888071896  0.0000
  O3     O3        0.236767827361601    0.209762720655697    0.253446234030053  0.0000
  O1     O1        0.270342661357830    0.739457423739803    0.257123376459118  0.0000
  O3     O3        0.734467461487044    0.221175499420744    0.671608243143758  0.0000
  O3     O3        0.762644980811837    0.741472059767380    0.689552481773552  0.0000
  O1     O1        0.117951591190758    0.336523523439358    0.093826609508381  0.0000
  O1     O1        0.389093234714470    0.621392945969139    0.094348464060136  0.0000
  O3     O3        0.853074156548238    0.226318461269745    0.829463318918231  0.0000
  O1     O1        0.637402047541225    0.735368886289637    0.847557294496315  0.0000
  O3     O3        0.881005293547046    0.633229512912386    0.829203044311618  0.0000
  O1     O1        0.617626814022715    0.345374392956542    0.836472950839631  0.0000
  O1     O1        0.141096850487233    0.732325804615269    0.097637322922631  0.0000
  O3     O3        0.358006521419655    0.220482341835152    0.104327877737064  0.0000
  O1     O1        0.658477864515818    0.519073054504977    0.063846662357584  0.0000
  O1     O1        0.845318541641203    0.433705435212332    0.050472697642567  0.0000
  O1     O1        0.340093972349325    0.433190255864174    0.879337073756371  0.0000
  O1     O1        0.162576908760162    0.519255917101121    0.874438920544395  0.0000
  O1     O1        0.729408177554774    0.202699531798401    0.002353487668896  0.0000
  O1     O1        0.770554814472194    0.752238173182065    0.006187876706130  0.0000
  O1     O1        0.231530779509141    0.195205936826241    0.935052171481453  0.0000
  O1     O1        0.270314101740414    0.753953421016965    0.940021284627363  0.0000
