data_c00847.vasp
_audit_creation_method             Generated by GULP
_audit_author_name                 Salvador R. G. Balestra
_symmetry_space_group_name_H-M     'P 1             '
_symmetry_Int_Tables_number        1

loop_
_symmetry_equiv_pos_site_id
_symmetry_equiv_pos_as_xyz
_cell_length_a                       17.7031
_cell_length_b                        7.7976
_cell_length_c                       10.1266
_cell_angle_alpha                   88.9434
_cell_angle_beta                    90.5743
_cell_angle_gamma                   90.6640

loop_
_atom_site_label
_atom_site_type_symbol
_atom_site_fract_x
_atom_site_fract_y
_atom_site_fract_z
_atom_site_charge
  Ge     Ge        0.052090000000021    0.000000000000000    0.372269999999958  0.0000
  Ge     Ge        0.442623602412180    0.051115846428487    0.335601446955223  0.0000
  Ge     Ge        0.942033856793236    0.070265651854445    0.615019214379315  0.0000
  Ge     Ge        0.548997621610812    0.995919895251539    0.082564851147018  0.0000
  Ge     Ge        0.946264414935049    0.055576491111774    0.118870629997444  0.0000
  Ge     Ge        0.442948406508082    0.050847626630792    0.828298661669689  0.0000
  Ge     Ge        0.048733191133939    0.995430816787503    0.867027808598654  0.0000
  Ge     Ge        0.173196537892963    0.283353988377548    0.260794792056452  0.0000
  Ge     Ge        0.324581585628410    0.763303352612387    0.254568642814265  0.0000
  Ge     Ge        0.841554789277625    0.386893867863845    0.669164221246743  0.0000
  Ge     Ge        0.818763223353910    0.786141141700996    0.686666145238074  0.0000
  Ge     Ge        0.660643344091342    0.320853216626852    0.684133056519951  0.0000
  Ge     Ge        0.144290537924393    0.685989500994919    0.251447817574294  0.0000
  Ge     Ge        0.671710854250923    0.282509678294859    0.004352846202611  0.0000
  Ge     Ge        0.824356844416198    0.773394472244087    0.006609538577654  0.0000
  Ge     Ge        0.146729162467650    0.677980281899543    0.928689441703585  0.0000
  Ge     Ge        0.326552487974129    0.756175231719233    0.937015246783521  0.0000
  Ge     Ge        0.174029772868325    0.276250197616599    0.938625218278915  0.0000
  Ge     Ge        0.648038617537414    0.687693485668231    0.015448392330379  0.0000
  Ge     Ge        0.849009694364994    0.367168676464265    0.993735660275594  0.0000
  Si     Si        0.547813480201354    0.028811646700949    0.584726013615388  0.0000
  Si     Si        0.641328698274095    0.717513570139381    0.702124281415448  0.0000
  Si     Si        0.347187431424912    0.363743532336922    0.260281120014066  0.0000
  Si     Si        0.348698950590846    0.354809894666759    0.949801959837035  0.0000
  O1     O1        0.129826193901586    0.130988444875348    0.356694441362469  0.0000
  O1     O1        0.372788034733408    0.899122526289101    0.357078275455624  0.0000
  O1     O1        0.907846763437117    0.272645875743692    0.585853031335483  0.0000
  O2     O2        0.580946627784275    0.845184808080814    0.633098253099489  0.0000
  O1     O1        0.864965995968220    0.936773999277570    0.593091834277057  0.0000
  O3     O3        0.609249876083579    0.180542705962275    0.588042085212665  0.0000
  O1     O1        0.077020478635804    0.794668173403730    0.335861951497894  0.0000
  O3     O3        0.408651180234048    0.258694942467908    0.344552574963773  0.0000
  O1     O1        0.020811325296767    0.012695292473149    0.532618979370563  0.0000
  O3     O3        0.520498661359567    0.013705670781122    0.433547311782426  0.0000
  O1     O1        0.975404406629256    0.066063544447084    0.280995462471105  0.0000
  O1     O1        0.472865620552054    0.033797008593990    0.175507337963813  0.0000
  O1     O1        0.971114660657504    0.054577605954500    0.779186491083702  0.0000
  O3     O3        0.473208745448208    0.073342861145016    0.666137404529751  0.0000
  O1     O1        0.622051871485467    0.141711415563364    0.101040492050147  0.0000
  O1     O1        0.872451784086845    0.912705356981313    0.105425385076885  0.0000
  O3     O3        0.412861902812469    0.251227163559154    0.878577826706096  0.0000
  O1     O1        0.081959063650586    0.792914138048284    0.838023808213980  0.0000
  O1     O1        0.373585979755847    0.895889474136403    0.834009064203165  0.0000
  O1     O1        0.125207069819466    0.132682870968825    0.846204600193422  0.0000
  O1     O1        0.583962176034005    0.792314153042431    0.107717284280102  0.0000
  O1     O1        0.920245975125315    0.259320840910815    0.071534178377683  0.0000
  O1     O1        0.520558792858791    0.999583090759196    0.919178081161413  0.0000
  O1     O1        0.022979546763562    0.993238679911186    0.031313567588528  0.0000
  O1     O1        0.153822476246747    0.483576261376425    0.318510830414118  0.0000
  O3     O3        0.337565302062111    0.553215500949436    0.312883308904159  0.0000
  O1     O1        0.834435317938443    0.593148192641974    0.612205472928115  0.0000
  O3     O3        0.645924366009529    0.533356042023764    0.632871981010511  0.0000
  O3     O3        0.269806927014527    0.253942661275901    0.267866820330641  0.0000
  O1     O1        0.229232919546552    0.797523887922812    0.256554272569937  0.0000
  O1     O1        0.755150780233745    0.283282261067378    0.664958894730901  0.0000
  O3     O3        0.722200995223198    0.814382695806613    0.696639843985781  0.0000
  O1     O1        0.143592444889787    0.262269399355747    0.099589555221239  0.0000
  O1     O1        0.357532540140432    0.789250532754783    0.096057117553684  0.0000
  O1     O1        0.870235235923081    0.402974792243073    0.831115409657241  0.0000
  O3     O3        0.618412974209440    0.673621800621241    0.851096937888090  0.0000
  O1     O1        0.854194291825500    0.796268323410669    0.845580125488405  0.0000
  O1     O1        0.636262258579556    0.282589674769606    0.845015652274454  0.0000
  O1     O1        0.117851676726078    0.658900712192911    0.090377885712613  0.0000
  O2     O2        0.369036061210728    0.381126591956299    0.104903035904343  0.0000
  O1     O1        0.662341970087475    0.484168131273173    0.070755198396346  0.0000
  O1     O1        0.837799030778017    0.564799507128258    0.061366784934519  0.0000
  O3     O3        0.339945444929653    0.544819922612043    0.888961399571074  0.0000
  O1     O1        0.156498250371913    0.476440317202824    0.870600814969726  0.0000
  O1     O1        0.766979128555355    0.244764729632839    0.001598540637623  0.0000
  O1     O1        0.729467987449078    0.810450632675395    0.014336973615916  0.0000
  O3     O3        0.270899800438839    0.246218193766158    0.936872752815009  0.0000
  O1     O1        0.231392379325080    0.790061277849193    0.929537252918834  0.0000
