data_c00881.vasp
_audit_creation_method             Generated by GULP
_audit_author_name                 Salvador R. G. Balestra
_symmetry_space_group_name_H-M     'P 1             '
_symmetry_Int_Tables_number        1

loop_
_symmetry_equiv_pos_site_id
_symmetry_equiv_pos_as_xyz
_cell_length_a                       17.6509
_cell_length_b                        7.8002
_cell_length_c                       10.1428
_cell_angle_alpha                   89.5073
_cell_angle_beta                    90.4173
_cell_angle_gamma                   90.9058

loop_
_atom_site_label
_atom_site_type_symbol
_atom_site_fract_x
_atom_site_fract_y
_atom_site_fract_z
_atom_site_charge
  Ge     Ge        0.052090000000021    0.000000000000000    0.372269999999958  0.0000
  Ge     Ge        0.443785565302786    0.049458091995578    0.371720808836272  0.0000
  Ge     Ge        0.940623970345005    0.058504011298203    0.617575253759524  0.0000
  Ge     Ge        0.555875108805513    0.995882163737981    0.131505447531482  0.0000
  Ge     Ge        0.947803414057251    0.054464271848095    0.116970033902016  0.0000
  Ge     Ge        0.447815062637753    0.064439243494716    0.877831636450320  0.0000
  Ge     Ge        0.050020254964123    0.998089866307035    0.866042694073861  0.0000
  Ge     Ge        0.175040869718610    0.281105952755285    0.258766570675041  0.0000
  Ge     Ge        0.326712053197145    0.756899504400482    0.262073151826776  0.0000
  Ge     Ge        0.639507915705265    0.697100913071314    0.687728068384460  0.0000
  Ge     Ge        0.821447340202179    0.764300556207218    0.682343682875351  0.0000
  Ge     Ge        0.664493409064832    0.294517016367134    0.689464898354267  0.0000
  Ge     Ge        0.144549977410622    0.683558642616832    0.256219933199664  0.0000
  Ge     Ge        0.676327998565392    0.280011193713623    0.011195218734289  0.0000
  Ge     Ge        0.825963422493446    0.771377078184404    0.000945705777202  0.0000
  Ge     Ge        0.149135209989830    0.686683569558867    0.934266011203417  0.0000
  Ge     Ge        0.328590491360338    0.768507412213860    0.945887971730468  0.0000
  Ge     Ge        0.174144745763172    0.284035211655018    0.936091832030811  0.0000
  Ge     Ge        0.646576155466723    0.684853483727148    0.007776459914359  0.0000
  Ge     Ge        0.853600223382668    0.366323121041153    0.993960675747170  0.0000
  Si     Si        0.545389604092582    0.014783995955344    0.622313908858178  0.0000
  Si     Si        0.841084863209692    0.369349489761056    0.678450122019799  0.0000
  Si     Si        0.350096434875198    0.359523860512258    0.252527867874836  0.0000
  Si     Si        0.347366163747320    0.370036434551442    0.940842558269124  0.0000
  O1     O1        0.131648251829574    0.125171647649398    0.350332697956461  0.0000
  O1     O1        0.373129541737475    0.898210792096161    0.363817244717282  0.0000
  O3     O3        0.900154711500869    0.258683022428138    0.596474151728259  0.0000
  O3     O3        0.574421556466327    0.822204313904971    0.603221571614828  0.0000
  O1     O1        0.873323615751811    0.902669461028914    0.585444780491609  0.0000
  O3     O3        0.615470415516982    0.145777071716746    0.595960355743783  0.0000
  O1     O1        0.077072696480657    0.792359004859147    0.341258956845921  0.0000
  O3     O3        0.415926710641164    0.252106867547961    0.320889143161174  0.0000
  O1     O1        0.021715996494686    0.025813317406306    0.531822177596737  0.0000
  O3     O3        0.472161854893148    0.058030291477097    0.536576364008937  0.0000
  O1     O1        0.975206930228981    0.061411978501657    0.279595158946917  0.0000
  O1     O1        0.524574928444377    0.997473191404269    0.290916957117691  0.0000
  O1     O1        0.970242277715452    0.045818261079146    0.780431515202141  0.0000
  O3     O3        0.523513133365779    0.039734860230352    0.775851792760604  0.0000
  O1     O1        0.632325462508515    0.131490907952300    0.109375850787901  0.0000
  O1     O1        0.871475011523839    0.917850165675364    0.098658704754923  0.0000
  O3     O3        0.410883380923436    0.269810125812066    0.863546426606703  0.0000
  O1     O1        0.086684413063402    0.798753986912111    0.838341362822317  0.0000
  O1     O1        0.380236324861571    0.907426513371669    0.850094686972510  0.0000
  O1     O1        0.122961395205411    0.144520769103708    0.842305518059032  0.0000
  O1     O1        0.581250842691241    0.789166502158947    0.098600348136909  0.0000
  O1     O1        0.926318668814215    0.260202167366178    0.066698419239741  0.0000
  O1     O1        0.479960292658660    0.055368853390353    0.037007660265232  0.0000
  O1     O1        0.024899602659786    0.990344688242646    0.030614649317352  0.0000
  O1     O1        0.153728976837736    0.479462780407952    0.318762980118860  0.0000
  O3     O3        0.342727974453777    0.546767592497059    0.314569192362363  0.0000
  O3     O3        0.830690169797864    0.558197130725843    0.618814362203430  0.0000
  O1     O1        0.645194694452226    0.494630947808368    0.625609552749712  0.0000
  O3     O3        0.272174761481049    0.251937611321083    0.267791122324341  0.0000
  O1     O1        0.231127479859035    0.789168898355475    0.264976364946624  0.0000
  O3     O3        0.761542788169391    0.264344260541819    0.681177582509016  0.0000
  O1     O1        0.726248993934021    0.802160044755419    0.682010127993979  0.0000
  O1     O1        0.145529973794496    0.264147774177072    0.097423930125818  0.0000
  O1     O1        0.360394292287435    0.792442481586808    0.105628239187895  0.0000
  O3     O3        0.870427514095465    0.397258836125340    0.827409861726398  0.0000
  O1     O1        0.612973533054448    0.670431880501749    0.848735180393597  0.0000
  O1     O1        0.856084660597152    0.789266061231413    0.840130209947329  0.0000
  O1     O1        0.640907131139614    0.275196076647922    0.852782975743691  0.0000
  O1     O1        0.118314938352781    0.663306281357154    0.094236438386976  0.0000
  O2     O2        0.366033899386300    0.392811204371347    0.097105864209400  0.0000
  O1     O1        0.662768567726408    0.484411055283514    0.069865233675680  0.0000
  O1     O1        0.844127508451701    0.566729638939823    0.058207912846140  0.0000
  O3     O3        0.338333044352431    0.560546474776243    0.885631937992184  0.0000
  O1     O1        0.159341292031379    0.486469490493107    0.873153280832075  0.0000
  O1     O1        0.772018580394604    0.245120389373774    0.011963742861759  0.0000
  O1     O1        0.730162317588753    0.802188208795297    0.003572565019250  0.0000
  O3     O3        0.271064463515421    0.254166995301515    0.929903897460824  0.0000
  O1     O1        0.233288268173840    0.803656587095585    0.940976142537314  0.0000
