data_c00824.vasp
_audit_creation_method             Generated by GULP
_audit_author_name                 Salvador R. G. Balestra
_symmetry_space_group_name_H-M     'P 1             '
_symmetry_Int_Tables_number        1

loop_
_symmetry_equiv_pos_site_id
_symmetry_equiv_pos_as_xyz
_cell_length_a                       17.5604
_cell_length_b                        7.8190
_cell_length_c                       10.1937
_cell_angle_alpha                   90.2685
_cell_angle_beta                    89.7834
_cell_angle_gamma                   91.4383

loop_
_atom_site_label
_atom_site_type_symbol
_atom_site_fract_x
_atom_site_fract_y
_atom_site_fract_z
_atom_site_charge
  Ge     Ge        0.052090000000021    0.000000000000000    0.372269999999958  0.0000
  Ge     Ge        0.447678618733510    0.056495559139373    0.421187455128332  0.0000
  Ge     Ge        0.943833362068172    0.050459632672179    0.623059117175789  0.0000
  Ge     Ge        0.555345458262824    0.014276433604338    0.169462602141981  0.0000
  Ge     Ge        0.948905221661539    0.076045785405300    0.119950533702537  0.0000
  Ge     Ge        0.451027505826674    0.073600241392500    0.915466195823460  0.0000
  Ge     Ge        0.053765386081941    0.008052361220917    0.868943106747777  0.0000
  Ge     Ge        0.172697013352092    0.294010205619075    0.303710389694874  0.0000
  Ge     Ge        0.326326772568470    0.773129725753682    0.308885462693594  0.0000
  Ge     Ge        0.851657767386396    0.370088248370279    0.743202230815870  0.0000
  Ge     Ge        0.647775450090157    0.697853376175371    0.734013537042663  0.0000
  Ge     Ge        0.667763788395494    0.296187317368603    0.742017668599730  0.0000
  Ge     Ge        0.355142652311081    0.372511436058583    0.304402240610161  0.0000
  Ge     Ge        0.670562670007761    0.310949757341700    0.058033391713308  0.0000
  Ge     Ge        0.823176842147247    0.788466441861037    0.048015211163257  0.0000
  Ge     Ge        0.354090491032558    0.385877367078199    0.985168160245659  0.0000
  Ge     Ge        0.146551183822928    0.698786448966012    0.994241778179213  0.0000
  Ge     Ge        0.325948286744973    0.788547940684923    0.990953706454630  0.0000
  Ge     Ge        0.174289449124464    0.293400684530332    0.986884644472054  0.0000
  Ge     Ge        0.852571410115982    0.389106891815163    0.059877590208476  0.0000
  Si     Si        0.552331402927804    0.008670302730384    0.667499640442986  0.0000
  Si     Si        0.825825005438557    0.766847431148189    0.736542391172311  0.0000
  Si     Si        0.148896315952796    0.689099189193282    0.305786707957636  0.0000
  Si     Si        0.646800195300020    0.707170478965031    0.046072928200688  0.0000
  O1     O1        0.121350862636752    0.155339257832410    0.400941824984482  0.0000
  O1     O1        0.368435885672501    0.925846820534312    0.406193971030330  0.0000
  O1     O1        0.913994909668675    0.254960768653528    0.650504756575707  0.0000
  O3     O3        0.584934598979318    0.819874067471535    0.646863082232004  0.0000
  O3     O3        0.869688408696644    0.905606110804293    0.648610866357294  0.0000
  O3     O3        0.619904048386297    0.147953473644886    0.644006915800150  0.0000
  O3     O3        0.089585722990164    0.798011470067682    0.390170419223374  0.0000
  O1     O1        0.422266985704401    0.261982453459127    0.388483409161762  0.0000
  O1     O1        0.971537657230498    0.030448826366513    0.461448799678796  0.0000
  O3     O3        0.478503920736420    0.043611914239954    0.582857068661073  0.0000
  O1     O1        0.024421609255018    0.018166763888058    0.210135226488779  0.0000
  O1     O1        0.523142170027557    0.993941009680734    0.327776470563033  0.0000
  O1     O1        0.024794392461905    0.004967203762176    0.708090658010605  0.0000
  O3     O3        0.527990134719733    0.025313616342185    0.820327004542073  0.0000
  O1     O1        0.625619429430657    0.170447398144744    0.161961101844300  0.0000
  O1     O1        0.870305668784660    0.939593230066114    0.136527924350788  0.0000
  O1     O1        0.417945330244856    0.276245791508771    0.891606229748214  0.0000
  O1     O1        0.077182045089306    0.803741378871689    0.913722683516438  0.0000
  O1     O1        0.376213536259061    0.929662299354805    0.895721471545326  0.0000
  O1     O1        0.130327301937003    0.146926493407693    0.886289205719899  0.0000
  O3     O3        0.584231849810191    0.812393372659938    0.122914188263689  0.0000
  O1     O1        0.916091426753831    0.277740127042664    0.151553275464753  0.0000
  O1     O1        0.479084220685009    0.069673958860672    0.077085275711110  0.0000
  O1     O1        0.976803495876580    0.072553674523377    0.957615630623375  0.0000
  O3     O3        0.159851101462446    0.501582776447532    0.363213022769646  0.0000
  O1     O1        0.345191995216424    0.574062805048235    0.369007888142385  0.0000
  O3     O3        0.840324786079870    0.575941686487363    0.683410590897042  0.0000
  O1     O1        0.650393272047576    0.494591363962061    0.675272490470517  0.0000
  O1     O1        0.268789742932821    0.261303037802150    0.308596009853764  0.0000
  O3     O3        0.228579802393014    0.796593917579520    0.303509085352609  0.0000
  O1     O1        0.763844560335628    0.266702415865745    0.740943358340993  0.0000
  O3     O3        0.736030541696111    0.800670271440787    0.730895824112889  0.0000
  O1     O1        0.140567407841620    0.270857090384202    0.145176875991908  0.0000
  O1     O1        0.358370354812829    0.799374128956230    0.150403220477766  0.0000
  O1     O1        0.884629533398766    0.389253182664034    0.899514859135746  0.0000
  O3     O3        0.620660843982357    0.677346188025553    0.896671963779992  0.0000
  O3     O3        0.854576477016189    0.785800217194815    0.886093065062781  0.0000
  O1     O1        0.635837823186262    0.282290225395463    0.901794522468987  0.0000
  O3     O3        0.120217403100981    0.668016049157342    0.156688542543580  0.0000
  O1     O1        0.384087228740028    0.402453211568575    0.145476481005377  0.0000
  O3     O3        0.658010177295186    0.521937956798580    0.109200541022945  0.0000
  O1     O1        0.842871354255502    0.592513301210177    0.115306382967905  0.0000
  O1     O1        0.339414211347972    0.585608718287123    0.927549350628978  0.0000
  O1     O1        0.158563818073241    0.498076401401663    0.931325237383007  0.0000
  O1     O1        0.766272869237874    0.278897835208694    0.058025729160857  0.0000
  O3     O3        0.726005775844047    0.817241052218327    0.049628428297040  0.0000
  O1     O1        0.270446452440615    0.264867026642565    0.989171693907934  0.0000
  O1     O1        0.229652356394835    0.820381583470102    0.986862281157191  0.0000
