data_c00811.vasp
_audit_creation_method             Generated by GULP
_audit_author_name                 Salvador R. G. Balestra
_symmetry_space_group_name_H-M     'P 1             '
_symmetry_Int_Tables_number        1

loop_
_symmetry_equiv_pos_site_id
_symmetry_equiv_pos_as_xyz
_cell_length_a                       17.6241
_cell_length_b                        7.8029
_cell_length_c                       10.2336
_cell_angle_alpha                   89.1667
_cell_angle_beta                    90.1690
_cell_angle_gamma                   89.1077

loop_
_atom_site_label
_atom_site_type_symbol
_atom_site_fract_x
_atom_site_fract_y
_atom_site_fract_z
_atom_site_charge
  Ge     Ge        0.052090000000021    0.000000000000000    0.372269999999958  0.0000
  Ge     Ge        0.450537534828892    0.956572034784135    0.372408828768182  0.0000
  Ge     Ge        0.943621887281820    0.954034428059210    0.623320256909120  0.0000
  Ge     Ge        0.558681187946683    0.003487906444530    0.125995341152804  0.0000
  Ge     Ge        0.946437152075292    0.946042578203532    0.122220591292656  0.0000
  Ge     Ge        0.448360882735639    0.951463885636821    0.877384699952426  0.0000
  Ge     Ge        0.050442996706446    0.016661154477264    0.872998144899253  0.0000
  Ge     Ge        0.146149326564932    0.317531904412183    0.254367256432557  0.0000
  Ge     Ge        0.355928223985726    0.643434244823808    0.255732177713347  0.0000
  Ge     Ge        0.824631383830934    0.246780739185025    0.688004651114953  0.0000
  Ge     Ge        0.666083515987239    0.719947714188821    0.697584089163567  0.0000
  Ge     Ge        0.644129851839654    0.316374533645132    0.690633733295126  0.0000
  Ge     Ge        0.175947294769821    0.721327143986028    0.261181643795579  0.0000
  Ge     Ge        0.326854095568323    0.237753230161358    0.260945274409479  0.0000
  Ge     Ge        0.853717737070956    0.634340384839808    0.002516480953755  0.0000
  Ge     Ge        0.328980508974731    0.245872746853921    0.944973452646658  0.0000
  Ge     Ge        0.174235566005676    0.728810555447986    0.944587346548912  0.0000
  Ge     Ge        0.149864637144982    0.328259018735901    0.934315567584668  0.0000
  Ge     Ge        0.674292087793161    0.710605322298564    0.014064931967283  0.0000
  Ge     Ge        0.826272708150492    0.231011578805712    0.004441209327127  0.0000
  Si     Si        0.548896638842761    0.003096047949712    0.625591104938813  0.0000
  Si     Si        0.843235813690705    0.643531779098591    0.690183652049879  0.0000
  Si     Si        0.649996130857605    0.312574283783695    0.001582177980803  0.0000
  Si     Si        0.349640084011415    0.643734787895785    0.945205796006182  0.0000
  O1     O1        0.077342343508539    0.207044243556570    0.336499955732462  0.0000
  O1     O1        0.426179180832755    0.750819760460892    0.333842554349666  0.0000
  O1     O1        0.877447362985683    0.113890901704975    0.591700221704885  0.0000
  O3     O3        0.619217639803326    0.872074980172440    0.602261443077188  0.0000
  O3     O3        0.901650222641872    0.755585655517353    0.606568931484140  0.0000
  O3     O3        0.577465061165882    0.197131400183655    0.609085811628543  0.0000
  O1     O1        0.129404602333938    0.867730682418620    0.355158990470280  0.0000
  O1     O1        0.372835908884272    0.088742672555661    0.357441556458831  0.0000
  O1     O1        0.023060814924837    0.981560086245570    0.532639637241941  0.0000
  O3     O3        0.477937678548302    0.963541258808672    0.535812598355387  0.0000
  O1     O1        0.974093094171489    0.941258583811477    0.282989081680473  0.0000
  O1     O1        0.527670498113130    0.019617994481912    0.284049244555318  0.0000
  O1     O1        0.973006118645542    0.966169865354324    0.784209832596277  0.0000
  O3     O3        0.524765149508620    0.974412202090544    0.776564021168316  0.0000
  O3     O3        0.588979393595032    0.206109957188844    0.081785246363795  0.0000
  O1     O1        0.925318454955304    0.740297339325526    0.076282564329506  0.0000
  O1     O1        0.382257617303469    0.112620421987849    0.850039592179015  0.0000
  O1     O1        0.125644049056352    0.875817461526275    0.851939375163044  0.0000
  O3     O3        0.407471027618866    0.751847657425585    0.858179412571290  0.0000
  O1     O1        0.085168056406258    0.218482249858343    0.844269646499896  0.0000
  O1     O1        0.628020271095926    0.847511187956041    0.116303218494624  0.0000
  O1     O1        0.867425405716947    0.075894441118858    0.100626384008500  0.0000
  O1     O1        0.480615714096216    0.953382439247315    0.035494499182529  0.0000
  O1     O1        0.022395637297375    0.017492593461449    0.034870479954573  0.0000
  O1     O1        0.159324343354346    0.516826533811598    0.318836022592814  0.0000
  O1     O1        0.344225411860935    0.440546519124235    0.317617188287826  0.0000
  O3     O3        0.832827340749714    0.457225998327923    0.630236343921264  0.0000
  O1     O1        0.647103704863674    0.522325690349468    0.632751508498027  0.0000
  O1     O1        0.230964040480917    0.204197437241364    0.261706045789107  0.0000
  O1     O1        0.271810309517257    0.756804585656488    0.266630082341547  0.0000
  O1     O1        0.729344651718140    0.208128583419732    0.679723990355837  0.0000
  O3     O3        0.763413818254626    0.747783831504065    0.694743990384728  0.0000
  O1     O1        0.120909907442359    0.348252305843110    0.094144929494197  0.0000
  O3     O3        0.379794095802719    0.617781412414359    0.092979946176840  0.0000
  O1     O1        0.857013940917577    0.215886365342541    0.845481222639223  0.0000
  O1     O1        0.639711608982016    0.738625506111111    0.858291049449369  0.0000
  O3     O3        0.872935420202066    0.613201778879509    0.837553727951571  0.0000
  O3     O3        0.620872643280481    0.340288163840443    0.853796289742025  0.0000
  O1     O1        0.142622826838130    0.742153427462185    0.103179162515831  0.0000
  O1     O1        0.359670151698366    0.218212302011366    0.103327984020190  0.0000
  O3     O3        0.662951536421626    0.497558617541093    0.063445993683998  0.0000
  O1     O1        0.847639237487369    0.429552584996749    0.063918525246596  0.0000
  O3     O3        0.336872033613768    0.457120835971233    0.887887175451080  0.0000
  O1     O1        0.159067696359934    0.531883423153542    0.875774653898553  0.0000
  O3     O3        0.728868735719173    0.204994688340125    0.000468900724037  0.0000
  O1     O1        0.769869885767974    0.746642920946859    0.020727829545853  0.0000
  O1     O1        0.233584388736755    0.209561286816407    0.936519076580872  0.0000
  O3     O3        0.271474351803229    0.755306844106887    0.950970659072877  0.0000
