data_c00809.vasp
_audit_creation_method             Generated by GULP
_audit_author_name                 Salvador R. G. Balestra
_symmetry_space_group_name_H-M     'P 1             '
_symmetry_Int_Tables_number        1

loop_
_symmetry_equiv_pos_site_id
_symmetry_equiv_pos_as_xyz
_cell_length_a                       17.5993
_cell_length_b                        7.8085
_cell_length_c                       10.2858
_cell_angle_alpha                   89.2610
_cell_angle_beta                    89.9940
_cell_angle_gamma                   88.7529

loop_
_atom_site_label
_atom_site_type_symbol
_atom_site_fract_x
_atom_site_fract_y
_atom_site_fract_z
_atom_site_charge
  Ge     Ge        0.052090000000021    0.000000000000000    0.372269999999958  0.0000
  Ge     Ge        0.454872131554228    0.950753884174720    0.407863684000818  0.0000
  Ge     Ge        0.944626354008379    0.962082336946911    0.621279853579163  0.0000
  Ge     Ge        0.561144275951771    0.997783172821240    0.157133500930245  0.0000
  Ge     Ge        0.950824633448505    0.940450891594108    0.114111673522717  0.0000
  Ge     Ge        0.453374348727186    0.947167942863374    0.906607539244880  0.0000
  Ge     Ge        0.056371923647791    0.006757218656043    0.863070940339074  0.0000
  Ge     Ge        0.149542854568965    0.317065314675524    0.302150913344434  0.0000
  Ge     Ge        0.359082580487353    0.638797426071507    0.294886052757576  0.0000
  Ge     Ge        0.828977278427554    0.258396769477947    0.727053402191508  0.0000
  Ge     Ge        0.671013931543710    0.727453754068256    0.738951270348787  0.0000
  Ge     Ge        0.646136371762953    0.321138760723375    0.729702104765541  0.0000
  Ge     Ge        0.178122792328874    0.721099543685000    0.297043846706592  0.0000
  Ge     Ge        0.329963152167590    0.234222491696012    0.297845070752363  0.0000
  Ge     Ge        0.847839823914507    0.631691589910872    0.054874576845688  0.0000
  Ge     Ge        0.328577079996516    0.229045774962170    0.982222030118421  0.0000
  Ge     Ge        0.177856971866969    0.722224829997569    0.981707474019720  0.0000
  Ge     Ge        0.357308715972545    0.631995716895256    0.979203964091311  0.0000
  Ge     Ge        0.148616751231212    0.316632138796483    0.985810839613820  0.0000
  Ge     Ge        0.829289908485576    0.232217909173650    0.038479913695373  0.0000
  Si     Si        0.554341398919137    0.010656915912490    0.658047237905720  0.0000
  Si     Si        0.848105939173385    0.654946443321956    0.742027960437798  0.0000
  Si     Si        0.650909109859332    0.308040446004990    0.033502374902751  0.0000
  Si     Si        0.672283118501956    0.704854861222952    0.047240369228348  0.0000
  O1     O1        0.084718040342249    0.203853413784448    0.391750427236949  0.0000
  O1     O1        0.426799416987915    0.745920239396541    0.379686873733961  0.0000
  O1     O1        0.877311754746359    0.122824547149060    0.626014767232571  0.0000
  O3     O3        0.625454695565166    0.878121482759742    0.642069668045112  0.0000
  O3     O3        0.911167974622125    0.764895721765356    0.669669252243159  0.0000
  O3     O3        0.583293219700373    0.203134897531461    0.638506223872726  0.0000
  O1     O1        0.127836692434087    0.859463567390651    0.393194842804016  0.0000
  O1     O1        0.377999327846669    0.086537107010807    0.392001190387288  0.0000
  O1     O1        0.974403094653667    0.949793015154051    0.461762050305888  0.0000
  O3     O3        0.484291279912784    0.966062307299069    0.568999535900320  0.0000
  O1     O1        0.025097400451056    0.984929939165010    0.210193926724987  0.0000
  O1     O1        0.531868209978329    0.004677303634961    0.315703127281507  0.0000
  O1     O1        0.025985756269584    0.007897769949796    0.704350883734369  0.0000
  O3     O3        0.528995218481938    0.988609557980775    0.808448033327838  0.0000
  O3     O3        0.597513735661288    0.199414669553063    0.126467163168355  0.0000
  O1     O1        0.913744410373222    0.739908502554646    0.139541837628684  0.0000
  O1     O1        0.377945039039189    0.089208090840303    0.886492319136475  0.0000
  O1     O1        0.133216129105351    0.869874032482678    0.882874165859037  0.0000
  O1     O1        0.421207841420442    0.743254458614108    0.887262318670040  0.0000
  O1     O1        0.081012640007204    0.212300442705792    0.900461577432346  0.0000
  O3     O3        0.625944298341083    0.828462888607434    0.141750538224986  0.0000
  O1     O1        0.874473876332864    0.081336118554641    0.131430925556242  0.0000
  O1     O1        0.482483225035830    0.965053354509617    0.066014144330426  0.0000
  O1     O1        0.980713553552435    0.943697506189203    0.954910452381571  0.0000
  O1     O1        0.163559621596364    0.517318437445313    0.359320605121780  0.0000
  O1     O1        0.345033365862678    0.436997500195362    0.356227798272699  0.0000
  O3     O3        0.840006952017913    0.470268738035297    0.676987989928198  0.0000
  O1     O1        0.649445362117482    0.529423734195937    0.678929984279786  0.0000
  O1     O1        0.234075515397390    0.200359022463053    0.300760039288488  0.0000
  O1     O1        0.274142030681770    0.754441226056780    0.297995230452290  0.0000
  O1     O1        0.733531469774974    0.221749427331798    0.720767284254145  0.0000
  O3     O3        0.767762360600975    0.758656880501216    0.732908532951838  0.0000
  O1     O1        0.118942166518355    0.337094908723320    0.143771734834781  0.0000
  O1     O1        0.388820381037527    0.615530243980342    0.137363286583771  0.0000
  O1     O1        0.863297983417892    0.220979730687000    0.881335740101900  0.0000
  O3     O3        0.643290288194919    0.739640759930821    0.900614609293199  0.0000
  O3     O3        0.870683859124717    0.619749002784297    0.890862527305894  0.0000
  O3     O3        0.615322919565340    0.319821490433022    0.890297164810235  0.0000
  O1     O1        0.145176001766388    0.737512226758864    0.139132689486369  0.0000
  O1     O1        0.361269936542453    0.218034374147779    0.140052227834401  0.0000
  O2     O2        0.662112825230083    0.502453827359157    0.083711179760251  0.0000
  O1     O1        0.846196783583264    0.426156790316330    0.109572632202814  0.0000
  O1     O1        0.342464384342168    0.433412309545737    0.920359485070717  0.0000
  O1     O1        0.162393622705451    0.518635044338208    0.924872409843157  0.0000
  O3     O3        0.732085428861233    0.210193008071462    0.026474639999450  0.0000
  O3     O3        0.760974092868719    0.741013001398084    0.061564531008801  0.0000
  O1     O1        0.232504118714299    0.197290796249176    0.982321991364440  0.0000
  O1     O1        0.273841087699958    0.752408500442113    0.983368897355977  0.0000
