data_c00812.vasp
_audit_creation_method             Generated by GULP
_audit_author_name                 Salvador R. G. Balestra
_symmetry_space_group_name_H-M     'P 1             '
_symmetry_Int_Tables_number        1

loop_
_symmetry_equiv_pos_site_id
_symmetry_equiv_pos_as_xyz
_cell_length_a                       16.8180
_cell_length_b                        7.8367
_cell_length_c                       10.7412
_cell_angle_alpha                   83.7229
_cell_angle_beta                    88.7685
_cell_angle_gamma                   90.6361

loop_
_atom_site_label
_atom_site_type_symbol
_atom_site_fract_x
_atom_site_fract_y
_atom_site_fract_z
_atom_site_charge
  Ge     Ge        0.052090000000021    0.000000000000000    0.372269999999958  0.0000
  Ge     Ge        0.480601343775735    0.056941360202142    0.391339112454182  0.0000
  Ge     Ge        0.974455266604858    0.073998114693052    0.641276518069734  0.0000
  Ge     Ge        0.581968616033588    0.982327930252790    0.126878254766101  0.0000
  Ge     Ge        0.968612125325298    0.971858305151971    0.101515713204456  0.0000
  Ge     Ge        0.469456166210319    0.113345162014519    0.892557690585157  0.0000
  Ge     Ge        0.096570161662582    0.077526903489356    0.865774349580999  0.0000
  Ge     Ge        0.189970167441113    0.292252693460223    0.282656071629210  0.0000
  Ge     Ge        0.353927089980211    0.785460265934296    0.314897871756437  0.0000
  Ge     Ge        0.866402384070730    0.377566057864919    0.696977964316647  0.0000
  Ge     Ge        0.686689311610244    0.797340577379470    0.761391218417637  0.0000
  Ge     Ge        0.669023519244788    0.394011359495576    0.717590574728127  0.0000
  Ge     Ge        0.166864179016877    0.724781454343897    0.279396191806591  0.0000
  Ge     Ge        0.369487037268249    0.377081198673098    0.315141307791482  0.0000
  Ge     Ge        0.874123518659963    0.634696797198931    0.047640279410964  0.0000
  Ge     Ge        0.390514866917749    0.439471037076867    0.994735148319720  0.0000
  Ge     Ge        0.366786569687083    0.819994550336345    0.016808749476097  0.0000
  Ge     Ge        0.203680529406079    0.361966260816091    0.978500665265067  0.0000
  Ge     Ge        0.689595583268116    0.680693593333733    0.065091044057629  0.0000
  Ge     Ge        0.865430417201692    0.266462592599316    0.988521332607121  0.0000
  Si     Si        0.569495096552171    0.100468989482374    0.643126139730069  0.0000
  Si     Si        0.867190740809552    0.752972256567639    0.747087134071035  0.0000
  Si     Si        0.675029049312629    0.308338246985739    0.001193544940224  0.0000
  Si     Si        0.175395358030643    0.748684199758293    0.998651057367382  0.0000
  O1     O1        0.120118368097972    0.167793329822968    0.367468966534235  0.0000
  O1     O1        0.403757212195312    0.910574245684484    0.410164197919344  0.0000
  O1     O1        0.919088916058962    0.253190835461148    0.601711832851455  0.0000
  O3     O3        0.635681804544145    0.976258768113911    0.706767174266104  0.0000
  O3     O3        0.930087432894871    0.905785358830987    0.741183922753753  0.0000
  O3     O3        0.608660741478523    0.290398276246184    0.619464959253608  0.0000
  O1     O1        0.097198918522454    0.804278522784506    0.374048152516514  0.0000
  O1     O1        0.445665758214189    0.262644706709284    0.382629980402728  0.0000
  O1     O1        0.992734488719596    0.992874657371945    0.502007315264079  0.0000
  O3     O3        0.542602130739007    0.028225522926565    0.518029206843470  0.0000
  O1     O1        0.994650966138511    0.030835920483086    0.241528655662513  0.0000
  O1     O1        0.534109536966463    0.034181688733114    0.257820072171636  0.0000
  O1     O1        0.060886094966803    0.106781783296721    0.717198239783452  0.0000
  O3     O3        0.493388199857811    0.107110339383441    0.737677608970067  0.0000
  O3     O3        0.655985428270063    0.141318851584648    0.092897458767112  0.0000
  O1     O1        0.950460300896572    0.758425715211955    0.094333394259795  0.0000
  O1     O1        0.463804403907580    0.314564129338721    0.938872816758557  0.0000
  O3     O3        0.149904009060098    0.885379469789154    0.887155936280202  0.0000
  O1     O1        0.377756171149818    0.006981856964147    0.922473955598456  0.0000
  O1     O1        0.161301602212234    0.244337396797510    0.872798645835592  0.0000
  O1     O1        0.628908907009166    0.790522525651368    0.158763062414657  0.0000
  O1     O1        0.876925092277263    0.070620716759009    0.066697902438465  0.0000
  O1     O1        0.522723721785396    0.979898533285848    0.999033520501336  0.0000
  O1     O1        0.024968069048687    0.078520242033047    0.981060349390401  0.0000
  O1     O1        0.175252264991874    0.509104289716988    0.294954779180290  0.0000
  O1     O1        0.365687956679729    0.573231294872586    0.370755230669785  0.0000
  O3     O3        0.892945009147676    0.593787927728647    0.671452994069250  0.0000
  O1     O1        0.650420297489628    0.608904994711270    0.714662832807927  0.0000
  O1     O1        0.282875451448753    0.257756822784222    0.342153037757998  0.0000
  O1     O1        0.254156379968650    0.827897227557839    0.309618478409717  0.0000
  O1     O1        0.765933608171393    0.361009568052266    0.676300923742775  0.0000
  O3     O3        0.782971965581281    0.826291008373788    0.699395858434480  0.0000
  O1     O1        0.189480816537839    0.256512762622405    0.127363183858596  0.0000
  O1     O1        0.396308048750741    0.838529681734183    0.167686416279279  0.0000
  O1     O1        0.900109893634361    0.275817476179441    0.836133053953844  0.0000
  O1     O1        0.685664411889807    0.798369467135569    0.920166754920236  0.0000
  O3     O3        0.852134792711184    0.665526963118626    0.889004841625899  0.0000
  O3     O3        0.636223524871427    0.296906607514636    0.865501091073375  0.0000
  O3     O3        0.132241465158388    0.794011946331916    0.127822324195867  0.0000
  O1     O1        0.378983746813921    0.412302621610290    0.154632313170838  0.0000
  O3     O3        0.647187563385447    0.478612324564531    0.060593321420011  0.0000
  O1     O1        0.904831667240913    0.426519999337672    0.069162932114538  0.0000
  O1     O1        0.413750971326074    0.651847026437967    0.955491324602253  0.0000
  O3     O3        0.154725790628713    0.557853363223659    0.969096404473443  0.0000
  O3     O3        0.768332448370294    0.340341874445816    0.967538985247836  0.0000
  O1     O1        0.784690197796100    0.669906104117608    0.121189789150295  0.0000
  O1     O1        0.301598811403474    0.383083795380656    0.933424491434268  0.0000
  O3     O3        0.268520246746393    0.744005474839447    0.035728001143696  0.0000
