data_c00863.vasp
_audit_creation_method             Generated by GULP
_audit_author_name                 Salvador R. G. Balestra
_symmetry_space_group_name_H-M     'P 1             '
_symmetry_Int_Tables_number        1

loop_
_symmetry_equiv_pos_site_id
_symmetry_equiv_pos_as_xyz
_cell_length_a                       17.8481
_cell_length_b                        7.8096
_cell_length_c                       10.2708
_cell_angle_alpha                   89.5059
_cell_angle_beta                    91.0288
_cell_angle_gamma                   90.2192

loop_
_atom_site_label
_atom_site_type_symbol
_atom_site_fract_x
_atom_site_fract_y
_atom_site_fract_z
_atom_site_charge
  Ge     Ge        0.052090000000021    0.000000000000000    0.372269999999958  0.0000
  Ge     Ge        0.445036977810695    0.038921362903633    0.340824213887529  0.0000
  Ge     Ge        0.938773009953898    0.019969935129021    0.611905333292964  0.0000
  Ge     Ge        0.547363386300296    0.031716330324449    0.083676910547038  0.0000
  Ge     Ge        0.944395875105701    0.013310741347923    0.117461701477006  0.0000
  Ge     Ge        0.443046648518751    0.043554253235444    0.827534677503409  0.0000
  Ge     Ge        0.046382105679357    0.017749102140200    0.867266147595735  0.0000
  Ge     Ge        0.172195577668047    0.284003026212470    0.253911995517418  0.0000
  Ge     Ge        0.328420743410857    0.751857121091837    0.262478467278721  0.0000
  Ge     Ge        0.821002781066669    0.305854258142175    0.683577578481565  0.0000
  Ge     Ge        0.833199468216501    0.708111539631988    0.676121034006962  0.0000
  Ge     Ge        0.148688041151568    0.689630328320830    0.264775751272453  0.0000
  Ge     Ge        0.645458154661626    0.348784811125815    0.005597914246782  0.0000
  Ge     Ge        0.846328021985561    0.703359171934597    0.997418975752723  0.0000
  Ge     Ge        0.348468325700732    0.354903527560922    0.944957757619363  0.0000
  Ge     Ge        0.145659436188702    0.700468498922310    0.947164019485723  0.0000
  Ge     Ge        0.324303335827400    0.767644412619270    0.947384573054775  0.0000
  Ge     Ge        0.170460852936059    0.293239614136735    0.936162978137697  0.0000
  Ge     Ge        0.669480611585280    0.757735418090731    0.008489665296427  0.0000
  Ge     Ge        0.823409086216555    0.292678226896760    0.998766041342043  0.0000
  Si     Si        0.549624373588073    0.040420186930995    0.588329882282507  0.0000
  Si     Si        0.656800616970624    0.745626985317104    0.696741137967597  0.0000
  Si     Si        0.642647267728502    0.348733752491226    0.699759598685046  0.0000
  Si     Si        0.347388232111939    0.348210003985889    0.255224879622237  0.0000
  O1     O1        0.126660050830603    0.133355861406797    0.343879030417394  0.0000
  O1     O1        0.379608102657268    0.880522888810717    0.365684426695810  0.0000
  O1     O1        0.869600551705859    0.170723658969633    0.587215635188205  0.0000
  O2     O2        0.604221810486546    0.879255323049239    0.617336364750598  0.0000
  O1     O1        0.892738926696779    0.829567920929535    0.585600751856170  0.0000
  O2     O2        0.589662977678183    0.224120785433610    0.612963716243104  0.0000
  O1     O1        0.084732783409200    0.795400954810286    0.356665036337125  0.0000
  O3     O3        0.404195566344266    0.239378779992185    0.345675735723654  0.0000
  O1     O1        0.019439396810573    0.036131739777011    0.526473668093474  0.0000
  O3     O3        0.524405322407206    0.031673743724600    0.438621237493458  0.0000
  O1     O1        0.973720929380842    0.032138990576893    0.276445982748762  0.0000
  O1     O1        0.476148880455843    0.999286052867006    0.186723818220647  0.0000
  O1     O1        0.968325419970301    0.039813077760001    0.771991469376493  0.0000
  O3     O3        0.473512317254717    0.029071985016885    0.668778229596055  0.0000
  O1     O1        0.582096803406168    0.236823543001563    0.095007140564483  0.0000
  O1     O1        0.915904376986329    0.807846619216377    0.080335011665604  0.0000
  O1     O1        0.415339114352546    0.249441657110258    0.861451621487421  0.0000
  O1     O1        0.081680617931592    0.813995062228924    0.855853441125197  0.0000
  O1     O1        0.367528859562599    0.909041591123923    0.845833100862798  0.0000
  O1     O1        0.118088418746917    0.161249968025675    0.838908113893761  0.0000
  O1     O1        0.621101309778538    0.891328179130920    0.104511227959583  0.0000
  O1     O1        0.870818377105607    0.150689017990701    0.095358250382278  0.0000
  O1     O1        0.515072396713707    0.985726881812684    0.928823726491433  0.0000
  O1     O1        0.019899412262254    0.061477768998559    0.024244657062295  0.0000
  O1     O1        0.155960327259458    0.482477878276408    0.318679513946552  0.0000
  O3     O3        0.338318856583928    0.537959933010212    0.309287950090861  0.0000
  O1     O1        0.833385201144586    0.505556698983807    0.617344458169869  0.0000
  O2     O2        0.642790384568769    0.547851544472580    0.648665345932377  0.0000
  O3     O3        0.267917944396321    0.248595738268687    0.253424763442688  0.0000
  O1     O1        0.234312047315064    0.792324142300672    0.271194102705980  0.0000
  O3     O3        0.725423537990383    0.271742207022701    0.694231283590432  0.0000
  O3     O3        0.743064443313169    0.792825979878792    0.673894773577705  0.0000
  O1     O1        0.141719526484644    0.279699863176931    0.095306003968199  0.0000
  O1     O1        0.357419203154121    0.782339820162032    0.105393111052021  0.0000
  O1     O1        0.854318153491840    0.287027117012747    0.841029682244496  0.0000
  O3     O3        0.638092705163952    0.757334548595908    0.847276940392863  0.0000
  O1     O1        0.866092935589110    0.702326896744069    0.834220947562623  0.0000
  O3     O3        0.612058243374917    0.345934905450370    0.844639770255478  0.0000
  O1     O1        0.116340852235450    0.690319460178376    0.105890155134517  0.0000
  O3     O3        0.376697015745574    0.356688667420249    0.107953249610963  0.0000
  O1     O1        0.656748247931646    0.550168519358302    0.063212797518236  0.0000
  O1     O1        0.837532311092154    0.498207611319148    0.054308726115003  0.0000
  O1     O1        0.338174295037456    0.561626592771237    0.892991090618493  0.0000
  O1     O1        0.156891022868072    0.501608489311366    0.883961526402653  0.0000
  O1     O1        0.729934694450797    0.244645965119906    0.004999518200896  0.0000
  O1     O1        0.762454489465733    0.808832056870491    0.014039735727552  0.0000
  O1     O1        0.264209055156797    0.248442948980579    0.929324955930373  0.0000
  O1     O1        0.230041335757155    0.808212414450880    0.949118386939677  0.0000
