data_c00822.vasp
_audit_creation_method             Generated by GULP
_audit_author_name                 Salvador R. G. Balestra
_symmetry_space_group_name_H-M     'P 1             '
_symmetry_Int_Tables_number        1

loop_
_symmetry_equiv_pos_site_id
_symmetry_equiv_pos_as_xyz
_cell_length_a                       17.5807
_cell_length_b                        7.8181
_cell_length_c                       10.1910
_cell_angle_alpha                   88.8400
_cell_angle_beta                    90.7465
_cell_angle_gamma                   88.6257

loop_
_atom_site_label
_atom_site_type_symbol
_atom_site_fract_x
_atom_site_fract_y
_atom_site_fract_z
_atom_site_charge
  Ge     Ge        0.052090000000021    0.000000000000000    0.372269999999958  0.0000
  Ge     Ge        0.445441654923499    0.962180580994166    0.364099902981790  0.0000
  Ge     Ge        0.939828731433373    0.962480508185185    0.618186327033271  0.0000
  Ge     Ge        0.555710671346598    0.011956882188463    0.119476640307756  0.0000
  Ge     Ge        0.943663077250466    0.951788485470263    0.120864368708167  0.0000
  Ge     Ge        0.448258636937487    0.959498254287852    0.864576025159288  0.0000
  Ge     Ge        0.045484848742245    0.023773034668366    0.870096783952637  0.0000
  Ge     Ge        0.146495772289032    0.318250551379780    0.253768739957602  0.0000
  Ge     Ge        0.356333595025506    0.640007861810178    0.251992638349394  0.0000
  Ge     Ge        0.822186887960694    0.257852245997654    0.683242953336825  0.0000
  Ge     Ge        0.662071429425257    0.732870791508263    0.690536414883872  0.0000
  Ge     Ge        0.641053330027213    0.329764338093844    0.683576872992158  0.0000
  Ge     Ge        0.173461367772681    0.717983755434753    0.259467976642535  0.0000
  Ge     Ge        0.851275502759338    0.641782612930928    0.998706242042403  0.0000
  Ge     Ge        0.323274258563839    0.243926457983364    0.939605909050114  0.0000
  Ge     Ge        0.170897663801586    0.735316806534471    0.942291106066690  0.0000
  Ge     Ge        0.350658304840732    0.648183759900506    0.935985412946230  0.0000
  Ge     Ge        0.145072186785724    0.332382767767687    0.933265626663230  0.0000
  Ge     Ge        0.670742615900517    0.718888433836637    0.007713531086207  0.0000
  Ge     Ge        0.823448297159638    0.239586577217213    0.000768681073172  0.0000
  Si     Si        0.546271339165876    0.021772924868539    0.613767152036978  0.0000
  Si     Si        0.840016099328043    0.654045820578159    0.685851996399401  0.0000
  Si     Si        0.325660060250994    0.244663159469566    0.251357358834453  0.0000
  Si     Si        0.646109596049269    0.321565847347649    0.995507078254708  0.0000
  O1     O1        0.081221319328046    0.204121935011104    0.339149134975312  0.0000
  O1     O1        0.420408251704641    0.753978124705178    0.341839522158768  0.0000
  O1     O1        0.874255523551645    0.125551202816194    0.585408640911079  0.0000
  O3     O3        0.614966928782165    0.884580198049794    0.592332797300759  0.0000
  O3     O3        0.897136022678621    0.766193635760352    0.600351435065823  0.0000
  O3     O3        0.576342330475210    0.212960650797516    0.594849536823418  0.0000
  O1     O1        0.128899562064241    0.865101152760859    0.355527932114389  0.0000
  O3     O3        0.367432347522979    0.096755664181677    0.337557257315308  0.0000
  O1     O1        0.021088197796337    0.985018253353425    0.531975442888558  0.0000
  O3     O3        0.472778715558220    0.984364129411496    0.527811304130369  0.0000
  O1     O1        0.972854175230090    0.947666888777520    0.282210795007879  0.0000
  O1     O1        0.523845546574669    0.018501364572385    0.277655472316188  0.0000
  O1     O1        0.967172826244945    0.976161305018797    0.781061955413960  0.0000
  O3     O3        0.523977103517819    0.001584645954412    0.766971052862262  0.0000
  O3     O3        0.586121482519788    0.214841978991149    0.077403414066193  0.0000
  O1     O1        0.922079948058389    0.746712862642796    0.076038079028092  0.0000
  O1     O1        0.375082355739600    0.108733908242901    0.845935546128769  0.0000
  O1     O1        0.119231653443410    0.878872024040710    0.848054530153057  0.0000
  O1     O1        0.412099460526823    0.760330955456388    0.839983977693877  0.0000
  O1     O1        0.079369545770049    0.226055048036788    0.842390503744181  0.0000
  O1     O1        0.626097918164565    0.856735606732642    0.110460002377196  0.0000
  O1     O1        0.864219275291341    0.082873887055235    0.098396479896820  0.0000
  O1     O1        0.478681301135978    0.962345084293569    0.025453261643718  0.0000
  O1     O1        0.018986259273791    0.022824148374227    0.033053938115209  0.0000
  O1     O1        0.155005928227331    0.516331577375928    0.319883589390669  0.0000
  O3     O3        0.344485765071420    0.430774080400054    0.307953144763412  0.0000
  O3     O3        0.829589383630950    0.468637580558646    0.625799515363174  0.0000
  O1     O1        0.643552273300201    0.535800111721425    0.625980698807793  0.0000
  O3     O3        0.235528835360229    0.215743807687777    0.253569818728162  0.0000
  O1     O1        0.269668772376335    0.745278927936807    0.258644825725369  0.0000
  O1     O1        0.726631691885261    0.220646888375271    0.675523620652189  0.0000
  O3     O3        0.759662801725184    0.758413296298271    0.691331111337270  0.0000
  O1     O1        0.117064964931552    0.346551128358776    0.094152603154601  0.0000
  O1     O1        0.386859547574250    0.632782138130865    0.093947367363809  0.0000
  O1     O1        0.854871005624916    0.226663018159088    0.841934226367155  0.0000
  O1     O1        0.634634071880468    0.749392606364506    0.851167879339931  0.0000
  O3     O3        0.871754935071458    0.624047319550955    0.833460838191464  0.0000
  O3     O3        0.615989238135274    0.349305270119467    0.846745007132030  0.0000
  O1     O1        0.138621980175333    0.742496191098617    0.101270599167973  0.0000
  O3     O3        0.354729852180767    0.234711203126472    0.102178029327921  0.0000
  O3     O3        0.658482565880471    0.506396358509036    0.056903667108439  0.0000
  O1     O1        0.845077301772491    0.437136775728553    0.060378839045762  0.0000
  O1     O1        0.335257539009036    0.449746801229943    0.878702818425263  0.0000
  O1     O1        0.158422481886939    0.534922302246693    0.876545240854820  0.0000
  O3     O3        0.725825546014302    0.215385531029635    0.994545464270159  0.0000
  O1     O1        0.766518341591681    0.753000377740900    0.013646950359109  0.0000
  O1     O1        0.228021690461524    0.208212779984329    0.932585262589327  0.0000
  O1     O1        0.266723708336573    0.767889096193404    0.943965861364343  0.0000
