data_c00891.vasp
_audit_creation_method             Generated by GULP
_audit_author_name                 Salvador R. G. Balestra
_symmetry_space_group_name_H-M     'P 1             '
_symmetry_Int_Tables_number        1

loop_
_symmetry_equiv_pos_site_id
_symmetry_equiv_pos_as_xyz
_cell_length_a                       17.6049
_cell_length_b                        7.8384
_cell_length_c                       10.1174
_cell_angle_alpha                   90.7606
_cell_angle_beta                    89.3664
_cell_angle_gamma                   88.0474

loop_
_atom_site_label
_atom_site_type_symbol
_atom_site_fract_x
_atom_site_fract_y
_atom_site_fract_z
_atom_site_charge
  Ge     Ge        0.052090000000021    0.000000000000000    0.372269999999958  0.0000
  Ge     Ge        0.446993590385729    0.948825266779804    0.340055315401230  0.0000
  Ge     Ge        0.945150553271192    0.934691651299216    0.622570332364975  0.0000
  Ge     Ge        0.551758353134553    0.001702847130902    0.079886470169978  0.0000
  Ge     Ge        0.943895942121560    0.934284818214339    0.127507765440446  0.0000
  Ge     Ge        0.448489525555044    0.936013729508729    0.824728956402486  0.0000
  Ge     Ge        0.049479136278367    0.997559154529219    0.874402636474196  0.0000
  Ge     Ge        0.142717346581966    0.316515415622131    0.257720732760086  0.0000
  Ge     Ge        0.349087884582225    0.634497316678885    0.266016609989966  0.0000
  Ge     Ge        0.667307539997588    0.693372659551919    0.691942334035499  0.0000
  Ge     Ge        0.850600329638923    0.616672019562685    0.689166296396388  0.0000
  Ge     Ge        0.646428217562789    0.292465578140216    0.696662736151456  0.0000
  Ge     Ge        0.324936104216915    0.234287950625406    0.264925791504833  0.0000
  Ge     Ge        0.853151885658946    0.621845871811860    0.008343103505779  0.0000
  Ge     Ge        0.326374477817545    0.224126269736887    0.943937843254176  0.0000
  Ge     Ge        0.175626343863019    0.711142040691656    0.940700375260228  0.0000
  Ge     Ge        0.355679941819382    0.627672927753202    0.944087267876978  0.0000
  Ge     Ge        0.145525172205226    0.311549323396307    0.938785787842761  0.0000
  Ge     Ge        0.670456254857984    0.700284497061662    0.010241265970233  0.0000
  Ge     Ge        0.823850846136658    0.221286680992136    0.003778285066549  0.0000
  Si     Si        0.554555390513235    0.983195142331178    0.579616279733433  0.0000
  Si     Si        0.824805735362512    0.223603780666325    0.688540780347018  0.0000
  Si     Si        0.170923085173923    0.710175545068409    0.255206103661672  0.0000
  Si     Si        0.647922837184082    0.306893616509087    0.011465276019039  0.0000
  O1     O1        0.079195717996814    0.205699215922046    0.350230950417394  0.0000
  O1     O1        0.410236685803277    0.750917405515701    0.358427265533317  0.0000
  O3     O3        0.871632691263135    0.085487706376761    0.600234343565234  0.0000
  O3     O3        0.623363888818643    0.847340502592070    0.596259781051510  0.0000
  O1     O1        0.910572464338575    0.735212476962263    0.594984166994831  0.0000
  O3     O3        0.580310526925822    0.171874802030171    0.619169386504202  0.0000
  O3     O3        0.126848481713210    0.857519037590285    0.338522096518086  0.0000
  O1     O1        0.373235441546396    0.095064799431361    0.364841534944174  0.0000
  O1     O1        0.025264121882787    0.977035262797467    0.535337776452343  0.0000
  O3     O3        0.528315942887436    0.983306313374990    0.427881113532492  0.0000
  O1     O1        0.970397805687857    0.954565873618627    0.289550964278135  0.0000
  O1     O1        0.474562795630420    0.973680990902052    0.176951827766974  0.0000
  O1     O1        0.972190729490430    0.946564331445607    0.786219823820813  0.0000
  O3     O3        0.479526226860532    0.934954848700448    0.661267661218727  0.0000
  O3     O3        0.589277365891970    0.203682889254819    0.098550000512286  0.0000
  O1     O1        0.918326653816063    0.727426461172687    0.099296287753687  0.0000
  O1     O1        0.370938161135571    0.072268373094325    0.845461740695517  0.0000
  O1     O1        0.124982271333983    0.854112507506442    0.849969237891624  0.0000
  O1     O1        0.423743509174436    0.730630139444364    0.857873162020744  0.0000
  O1     O1        0.082431237965697    0.198411177716017    0.847412073272173  0.0000
  O1     O1        0.620114508028455    0.843856789517353    0.107374392950989  0.0000
  O1     O1        0.865687736417568    0.063442538665020    0.092469121923934  0.0000
  O1     O1        0.522996934626599    0.996768876685807    0.917929165908931  0.0000
  O1     O1        0.021922198852324    0.990458842954712    0.038718190796446  0.0000
  O3     O3        0.154125399662822    0.524447440507516    0.314586324055889  0.0000
  O1     O1        0.340420792546112    0.436065007618054    0.327586981850776  0.0000
  O3     O3        0.839723006870215    0.411081450889680    0.630879220757213  0.0000
  O1     O1        0.648983815419354    0.492577174233633    0.631231637773502  0.0000
  O1     O1        0.228939298622577    0.207194764080316    0.264599454843731  0.0000
  O3     O3        0.260641188241861    0.740596570976602    0.259052745554142  0.0000
  O3     O3        0.735251458657951    0.190778803117230    0.684894526171432  0.0000
  O1     O1        0.763118630534479    0.720678712898728    0.690955286861909  0.0000
  O1     O1        0.111313580672990    0.326014438843221    0.099072130881182  0.0000
  O1     O1        0.382770546226707    0.618072345701314    0.106307727693667  0.0000
  O3     O3        0.853593717629226    0.215356911011253    0.839456072188128  0.0000
  O1     O1        0.635854233280816    0.718697778275191    0.852269975490212  0.0000
  O1     O1        0.884571777382875    0.610695239626533    0.846944821653209  0.0000
  O3     O3        0.620770159148529    0.326211645799655    0.860172098489286  0.0000
  O3     O3        0.143468912615511    0.714806352288455    0.104087908390756  0.0000
  O1     O1        0.357951395161032    0.214641606729675    0.104014242010805  0.0000
  O3     O3        0.658709693197085    0.494575986661686    0.069987567975110  0.0000
  O1     O1        0.845155293293046    0.418473357518955    0.066413304352812  0.0000
  O1     O1        0.343311476007367    0.425426480537645    0.884810231761078  0.0000
  O1     O1        0.159458425689704    0.509175150803569    0.877961754253483  0.0000
  O3     O3        0.726958914563454    0.196376249068641    0.007285205816972  0.0000
  O1     O1        0.766116063438411    0.730314393848626    0.011775327893561  0.0000
  O1     O1        0.230439789594791    0.195616505551100    0.944343597419138  0.0000
  O1     O1        0.270717902751818    0.744372888614071    0.934830242109324  0.0000
