data_c00843.vasp
_audit_creation_method             Generated by GULP
_audit_author_name                 Salvador R. G. Balestra
_symmetry_space_group_name_H-M     'P 1             '
_symmetry_Int_Tables_number        1

loop_
_symmetry_equiv_pos_site_id
_symmetry_equiv_pos_as_xyz
_cell_length_a                       17.7187
_cell_length_b                        7.8064
_cell_length_c                       10.0717
_cell_angle_alpha                   88.5305
_cell_angle_beta                    90.6365
_cell_angle_gamma                   90.9456

loop_
_atom_site_label
_atom_site_type_symbol
_atom_site_fract_x
_atom_site_fract_y
_atom_site_fract_z
_atom_site_charge
  Ge     Ge        0.052090000000021    0.000000000000000    0.372269999999958  0.0000
  Ge     Ge        0.447123218304327    0.048093984139064    0.375329483172875  0.0000
  Ge     Ge        0.940721339924042    0.078063238031900    0.609209650277135  0.0000
  Ge     Ge        0.551844274926537    0.002508905356907    0.117216513418883  0.0000
  Ge     Ge        0.950258241338944    0.066027817073080    0.114482915273902  0.0000
  Ge     Ge        0.445160535619656    0.065764549187860    0.862298099319819  0.0000
  Ge     Ge        0.051652140467704    0.011449485363781    0.858726536298073  0.0000
  Ge     Ge        0.175257776664379    0.283712818700102    0.301453836914013  0.0000
  Ge     Ge        0.327868273225342    0.760812555829852    0.302107069966433  0.0000
  Ge     Ge        0.846097285727774    0.389034538006950    0.723641758727876  0.0000
  Ge     Ge        0.820470790873480    0.790817336778111    0.726604408078698  0.0000
  Ge     Ge        0.663153515615780    0.323971921237457    0.728710792303044  0.0000
  Ge     Ge        0.148254052860238    0.684111884213987    0.308060276092730  0.0000
  Ge     Ge        0.669295851057560    0.302620753123563    0.048638069318063  0.0000
  Ge     Ge        0.825463435370857    0.780987282367696    0.050890840806968  0.0000
  Ge     Ge        0.352162003733030    0.373246328828438    0.984082284325985  0.0000
  Ge     Ge        0.145282161267893    0.695699504778112    0.983587617610457  0.0000
  Ge     Ge        0.324162908020480    0.780774120551530    0.980169110284166  0.0000
  Ge     Ge        0.174015616487029    0.290580405553393    0.978281700080140  0.0000
  Ge     Ge        0.848287713776971    0.377725862146051    0.049971597339180  0.0000
  Si     Si        0.551968413759737    0.030218593594143    0.623467355724702  0.0000
  Si     Si        0.644581624940162    0.721087653571277    0.741299848347406  0.0000
  Si     Si        0.350828619271200    0.362389848969044    0.300023195070639  0.0000
  Si     Si        0.652342549378603    0.700776535122217    0.054022302149120  0.0000
  O1     O1        0.127658431052909    0.137092913291965    0.398429964861777  0.0000
  O1     O1        0.378780967274345    0.893139440148094    0.403387092722959  0.0000
  O1     O1        0.912837037904978    0.282997138642969    0.636542486220225  0.0000
  O2     O2        0.581124921123974    0.845245419377036    0.678291004501485  0.0000
  O1     O1        0.862585972299274    0.950353947909541    0.634731126637875  0.0000
  O3     O3        0.614389942211989    0.179979017266505    0.631492925909086  0.0000
  O1     O1        0.084202904570375    0.795774872855028    0.397886063086718  0.0000
  O3     O3        0.409679707695946    0.251204274161991    0.386792363967144  0.0000
  O1     O1        0.970941848306190    0.054467236476061    0.448347779066227  0.0000
  O3     O3        0.527385383639605    0.017098627992255    0.470085186175451  0.0000
  O1     O1        0.028626158205854    0.019036328028584    0.204307864817910  0.0000
  O1     O1        0.475457434821513    0.023900189324994    0.213919645101442  0.0000
  O1     O1        0.020484497590125    0.019056323187913    0.696306461240567  0.0000
  O3     O3        0.475296562486186    0.073718910341667    0.698680398218776  0.0000
  O1     O1        0.617780026154754    0.162611014494681    0.145067632751635  0.0000
  O1     O1        0.877535923861803    0.919690234859826    0.142209546925475  0.0000
  O1     O1        0.420606800122846    0.270790734684592    0.901695679190554  0.0000
  O1     O1        0.077049797904530    0.804177415086335    0.896677418132076  0.0000
  O1     O1        0.368907961684759    0.929379998298648    0.879872927077822  0.0000
  O1     O1        0.127493895651573    0.147791973836534    0.879948409404886  0.0000
  O3     O3        0.591735757888527    0.800131754239797    0.136492744883168  0.0000
  O1     O1        0.913888620488546    0.265201820548479    0.140041507884087  0.0000
  O1     O1        0.521226770530951    0.004934060958547    0.955171195999416  0.0000
  O1     O1        0.975388496587843    0.068116645070149    0.949204101860205  0.0000
  O1     O1        0.158320106924618    0.480236268781404    0.368616043246570  0.0000
  O3     O3        0.338924291579550    0.548688671129693    0.357771039079581  0.0000
  O1     O1        0.839881645895382    0.595571804121154    0.662195186060932  0.0000
  O3     O3        0.645305647159863    0.535410432839243    0.676576551968168  0.0000
  O3     O3        0.271784534574605    0.254958273110941    0.297857290357427  0.0000
  O1     O1        0.232893374903586    0.797182685579472    0.308631461613097  0.0000
  O1     O1        0.758089502966383    0.291762991768413    0.715186274254903  0.0000
  O3     O3        0.723847441870234    0.819398720815870    0.722950225172372  0.0000
  O1     O1        0.143277567625318    0.272422559698466    0.139745146746775  0.0000
  O1     O1        0.357070862946484    0.792994027750360    0.141054439013088  0.0000
  O1     O1        0.874335354884886    0.400138283880004    0.886153809751712  0.0000
  O2     O2        0.629950360662192    0.682100425959084    0.897628438263322  0.0000
  O1     O1        0.852722817421622    0.801585331988388    0.887464879262989  0.0000
  O1     O1        0.635079212458739    0.286608066123654    0.888728809836975  0.0000
  O1     O1        0.118219023894087    0.668535693667470    0.145846129980095  0.0000
  O3     O3        0.379272751619036    0.387459328468653    0.149711595588339  0.0000
  O3     O3        0.662244660249691    0.509279604596266    0.109539358350315  0.0000
  O1     O1        0.840837039139715    0.576727541913856    0.112530136833017  0.0000
  O1     O1        0.339558388123764    0.577348925179016    0.923776565896459  0.0000
  O1     O1        0.157952895834063    0.496867502114194    0.920191127281169  0.0000
  O1     O1        0.763912820950591    0.262996336709102    0.050577296412192  0.0000
  O3     O3        0.729386081242796    0.813611827583474    0.059487738695200  0.0000
  O1     O1        0.269290002595791    0.256326928525222    0.973895252050682  0.0000
  O1     O1        0.228614222477468    0.812842626686026    0.978717489430861  0.0000
