data_c00992.vasp
_audit_creation_method             Generated by GULP
_audit_author_name                 Salvador R. G. Balestra
_symmetry_space_group_name_H-M     'P 1             '
_symmetry_Int_Tables_number        1

loop_
_symmetry_equiv_pos_site_id
_symmetry_equiv_pos_as_xyz
_cell_length_a                       17.4936
_cell_length_b                        7.8471
_cell_length_c                       10.2254
_cell_angle_alpha                   91.5055
_cell_angle_beta                    90.3401
_cell_angle_gamma                   88.3435

loop_
_atom_site_label
_atom_site_type_symbol
_atom_site_fract_x
_atom_site_fract_y
_atom_site_fract_z
_atom_site_charge
  Ge     Ge        0.052090000000021    0.000000000000000    0.372269999999958  0.0000
  Ge     Ge        0.437333085151276    0.956428756944354    0.373453633682232  0.0000
  Ge     Ge        0.945899373616166    0.929239623783486    0.618425282872409  0.0000
  Ge     Ge        0.547818959727952    0.997057523785801    0.126164575921152  0.0000
  Ge     Ge        0.941380689247728    0.935045053114471    0.123381354463957  0.0000
  Ge     Ge        0.443249003263834    0.927263270521203    0.869529445437684  0.0000
  Ge     Ge        0.137285858495354    0.322244780912944    0.263376102319011  0.0000
  Ge     Ge        0.820900080915229    0.217806635520352    0.687520398011603  0.0000
  Ge     Ge        0.661768011011489    0.696715379177081    0.692826499735266  0.0000
  Ge     Ge        0.844892131801456    0.619245184069665    0.686910020759527  0.0000
  Ge     Ge        0.638047071300813    0.294097208438195    0.688502895998491  0.0000
  Ge     Ge        0.323208878073071    0.251799956915720    0.264859181961625  0.0000
  Ge     Ge        0.638299637671674    0.306478584557490    0.006151527550337  0.0000
  Ge     Ge        0.849958985594260    0.619251337003809    0.004587151241480  0.0000
  Ge     Ge        0.320951193807311    0.219291531874697    0.951113764339141  0.0000
  Ge     Ge        0.160397688469538    0.698590390182156    0.943039218450430  0.0000
  Ge     Ge        0.341241417640173    0.624831624586653    0.937614946814440  0.0000
  Ge     Ge        0.137706047715713    0.295171195645387    0.948899747627377  0.0000
  Ge     Ge        0.668224507819027    0.707493357174055    0.010402763495396  0.0000
  Ge     Ge        0.820092310227877    0.218243554209474    0.005421772925921  0.0000
  Si     Si        0.543531383185568    0.980646924328777    0.620089341856713  0.0000
  Si     Si        0.042080174749201    0.988288740403323    0.875052387137055  0.0000
  Si     Si        0.343587519928294    0.643338640926488    0.248557765381272  0.0000
  Si     Si        0.165036017892251    0.710546033633035    0.252698867045495  0.0000
  O1     O1        0.076988749719263    0.208303807047201    0.357271373110521  0.0000
  O3     O3        0.398871224996294    0.762530634547994    0.331053961039359  0.0000
  O1     O1        0.873106124039259    0.076219304437798    0.591683749644925  0.0000
  O3     O3        0.611462579775140    0.840404185324093    0.597033177190223  0.0000
  O1     O1        0.908991007334925    0.730415350895223    0.598136400680358  0.0000
  O3     O3        0.574533857498445    0.168913994930437    0.599774859408857  0.0000
  O3     O3        0.131110049854121    0.870419270150522    0.333998367567301  0.0000
  O1     O1        0.368778058675121    0.115189098283455    0.368839007115567  0.0000
  O1     O1        0.025901222599680    0.963518416849404    0.530561705376023  0.0000
  O3     O3        0.469377079510637    0.942761241040841    0.534294861071859  0.0000
  O1     O1        0.972408236485039    0.951227060502633    0.282338245374632  0.0000
  O1     O1        0.516596012538297    0.997235202184744    0.284937572259252  0.0000
  O3     O3        0.970360969035258    0.953264434197200    0.783916459278493  0.0000
  O3     O3        0.519513417840828    0.966820813854531    0.772517129844029  0.0000
  O1     O1        0.571422334542302    0.202316606715335    0.091697372827481  0.0000
  O1     O1        0.917200991289848    0.727669128280841    0.092566674831479  0.0000
  O1     O1        0.369775391709260    0.076127318779931    0.853165829822664  0.0000
  O3     O3        0.106778547308639    0.839485872355172    0.852487829442316  0.0000
  O1     O1        0.406042523152612    0.727802379815439    0.846494396254709  0.0000
  O3     O3        0.078044156643454    0.171756773139040    0.851947616158940  0.0000
  O1     O1        0.626209813190453    0.861897727940236    0.108192803633631  0.0000
  O1     O1        0.863684330940189    0.069442989096855    0.101391194575531  0.0000
  O1     O1        0.473965155872482    0.931785910595995    0.029329676626328  0.0000
  O3     O3        0.016651281262469    0.991291731558968    0.026530017218150  0.0000
  O3     O3        0.142795805087083    0.533788230200977    0.317568610724732  0.0000
  O3     O3        0.342274950160285    0.460111730698956    0.313282181674759  0.0000
  O1     O1        0.832660932405402    0.417879373610782    0.625329618198919  0.0000
  O1     O1        0.646742904437711    0.493954019955301    0.628578249167792  0.0000
  O1     O1        0.226674711051849    0.227154123134412    0.268804090244982  0.0000
  O2     O2        0.256962058139675    0.723982701562656    0.244022058924624  0.0000
  O1     O1        0.724525080223172    0.183456850336117    0.686354294657259  0.0000
  O1     O1        0.758201134438511    0.730818747544933    0.689071037297053  0.0000
  O1     O1        0.103652236490533    0.318838170619361    0.105878728170441  0.0000
  O3     O3        0.371429474177780    0.621024329103919    0.100212427701721  0.0000
  O1     O1        0.852258183731186    0.205186867733952    0.846995810690569  0.0000
  O1     O1        0.632497522365124    0.714309739111449    0.853018814941716  0.0000
  O1     O1        0.878115354783674    0.598855399463778    0.844321098153227  0.0000
  O1     O1        0.607779261360317    0.323514065310412    0.846724632117416  0.0000
  O3     O3        0.132016951271585    0.711226267197762    0.105661260105136  0.0000
  O1     O1        0.356240266102626    0.209123741161150    0.109032975815779  0.0000
  O1     O1        0.651728699599457    0.507652639992153    0.069408656946535  0.0000
  O1     O1        0.837905445657640    0.421217244535954    0.065919863492624  0.0000
  O1     O1        0.331600710401446    0.418930645042562    0.887108491879575  0.0000
  O1     O1        0.145940197257289    0.492973084404277    0.885576690106473  0.0000
  O1     O1        0.723289865468172    0.190259665753032    0.005888281705913  0.0000
  O1     O1        0.764847768673767    0.735236425472646    0.006902741103568  0.0000
  O1     O1        0.224659864957705    0.187529049831132    0.957447403586529  0.0000
  O1     O1        0.255323825167773    0.737521668355872    0.928918379657990  0.0000
