data_c00903.vasp
_audit_creation_method             Generated by GULP
_audit_author_name                 Salvador R. G. Balestra
_symmetry_space_group_name_H-M     'P 1             '
_symmetry_Int_Tables_number        1

loop_
_symmetry_equiv_pos_site_id
_symmetry_equiv_pos_as_xyz
_cell_length_a                       17.6186
_cell_length_b                        7.8520
_cell_length_c                       10.0171
_cell_angle_alpha                   90.5468
_cell_angle_beta                    89.8929
_cell_angle_gamma                   87.7319

loop_
_atom_site_label
_atom_site_type_symbol
_atom_site_fract_x
_atom_site_fract_y
_atom_site_fract_z
_atom_site_charge
  Ge     Ge        0.052090000000021    0.000000000000000    0.372269999999958  0.0000
  Ge     Ge        0.445981980961171    0.942436439281947    0.390093873226944  0.0000
  Ge     Ge        0.939486159049917    0.947005005372102    0.615971500791706  0.0000
  Ge     Ge        0.545179709525216    0.008247745864251    0.128641352277929  0.0000
  Ge     Ge        0.948678166667204    0.945990649729283    0.117840747993059  0.0000
  Ge     Ge        0.445647837487750    0.945627341910044    0.865004530012863  0.0000
  Ge     Ge        0.051377811380134    0.007883250625404    0.861546675463984  0.0000
  Ge     Ge        0.145355501725726    0.315883809642403    0.302914911576144  0.0000
  Ge     Ge        0.348564361712554    0.633216695231101    0.312627932218305  0.0000
  Ge     Ge        0.846373699466957    0.632458599312274    0.731358693473551  0.0000
  Ge     Ge        0.643825997754711    0.305281615212579    0.740098145634050  0.0000
  Ge     Ge        0.327079245346234    0.232321642586492    0.305683649486902  0.0000
  Ge     Ge        0.643281777486321    0.314479083544904    0.061850736148437  0.0000
  Ge     Ge        0.849984841282542    0.636980197576625    0.054898586332643  0.0000
  Ge     Ge        0.324977561767153    0.233615057274798    0.982855598743394  0.0000
  Ge     Ge        0.173221913509809    0.719822767177852    0.987521186970833  0.0000
  Ge     Ge        0.354317188570365    0.635991448059607    0.987458027000942  0.0000
  Ge     Ge        0.142179743716181    0.319267364645151    0.982440795393937  0.0000
  Ge     Ge        0.670039914632238    0.714970237229342    0.055246098070412  0.0000
  Ge     Ge        0.823458282195970    0.235323390638628    0.051941674630042  0.0000
  Si     Si        0.556340433472774    0.989391455355364    0.623798331112361  0.0000
  Si     Si        0.824874530142546    0.241109640370611    0.735850037873431  0.0000
  Si     Si        0.665609662205844    0.696202106950013    0.737737442334968  0.0000
  Si     Si        0.171124619482652    0.708899653630371    0.305695840749011  0.0000
  O1     O1        0.086874490391675    0.198170012812189    0.400531056628136  0.0000
  O1     O1        0.408619927198761    0.746945719085074    0.410795550051783  0.0000
  O3     O3        0.866137880565915    0.093027962554924    0.649127512166314  0.0000
  O2     O2        0.621815832392470    0.847574676586858    0.657567841843479  0.0000
  O1     O1        0.905861347405367    0.746667509046272    0.635439245231082  0.0000
  O3     O3        0.585910526699875    0.177692454789860    0.646937053758514  0.0000
  O3     O3        0.123544818623717    0.843768848352759    0.396582111368685  0.0000
  O1     O1        0.374405271738264    0.095052437871186    0.411122976508169  0.0000
  O1     O1        0.969107250598807    0.963585550657426    0.452590645592217  0.0000
  O3     O3        0.530970612720736    0.973485614123460    0.470155113087541  0.0000
  O1     O1        0.027623222515579    0.990355744444369    0.204947045123267  0.0000
  O1     O1        0.469450744590473    0.961789226771454    0.222700508280113  0.0000
  O1     O1        0.022562750752595    0.984915904192997    0.698503188883310  0.0000
  O3     O3        0.478249674713606    0.955890672800754    0.701521123630374  0.0000
  O1     O1        0.580451535451429    0.207106465584554    0.156706945006183  0.0000
  O1     O1        0.914909639973209    0.746449210913210    0.144936309781741  0.0000
  O1     O1        0.367310172399218    0.080916311807934    0.882316037322263  0.0000
  O1     O1        0.128564149505269    0.875237041252631    0.896949878038476  0.0000
  O1     O1        0.420856462612627    0.740832483896254    0.898958385276855  0.0000
  O1     O1        0.077939470004234    0.214046126620369    0.887659797671846  0.0000
  O1     O1        0.619053806564452    0.859491614418540    0.147745380898290  0.0000
  O1     O1        0.874856040383216    0.093360353452968    0.144519857881466  0.0000
  O1     O1        0.518724202049752    0.005886376031834    0.963069371400489  0.0000
  O1     O1        0.973429058122879    0.955701907629104    0.951304965186731  0.0000
  O3     O3        0.158155020648440    0.519810724409173    0.362477360019520  0.0000
  O1     O1        0.340804090972432    0.433226760937854    0.371164116183418  0.0000
  O3     O3        0.842410036707462    0.423995369444266    0.673671052124970  0.0000
  O3     O3        0.646385219587005    0.511531362084940    0.677686890714349  0.0000
  O1     O1        0.231398936933116    0.204126506964613    0.299018612129733  0.0000
  O3     O3        0.260378086911339    0.742381229961017    0.308890521105049  0.0000
  O3     O3        0.734948019278039    0.216243574680595    0.738155795475957  0.0000
  O3     O3        0.754998212697210    0.723402201501352    0.729281428344836  0.0000
  O1     O1        0.109382893599234    0.328186672664205    0.144468329322009  0.0000
  O1     O1        0.382144597317856    0.621719025192055    0.151625527710873  0.0000
  O3     O3        0.855348959420506    0.233400090019188    0.887068751913197  0.0000
  O3     O3        0.638446370744527    0.706864769050911    0.890690252475951  0.0000
  O1     O1        0.879774333714118    0.630818043675631    0.890695138897900  0.0000
  O1     O1        0.610609702678428    0.318588906679445    0.899036276080929  0.0000
  O3     O3        0.142698109062832    0.719629803018311    0.152807368554915  0.0000
  O1     O1        0.359911376429467    0.217050053824775    0.143321601871354  0.0000
  O1     O1        0.656222460562968    0.514825693386616    0.120045627143027  0.0000
  O1     O1        0.837994547068612    0.437984945081686    0.113927906388859  0.0000
  O1     O1        0.343356941080374    0.434604006280895    0.925500735609511  0.0000
  O1     O1        0.153297452299581    0.521444064558647    0.924284010124869  0.0000
  O1     O1        0.728954725752696    0.199023309984957    0.057929492511302  0.0000
  O1     O1        0.764501918346963    0.752865676737321    0.057711503508663  0.0000
  O1     O1        0.228881592345421    0.210226083278005    0.983500477001943  0.0000
  O1     O1        0.268670886632742    0.749275368566600    0.981658807100435  0.0000
