data_c00965.vasp
_audit_creation_method             Generated by GULP
_audit_author_name                 Salvador R. G. Balestra
_symmetry_space_group_name_H-M     'P 1             '
_symmetry_Int_Tables_number        1

loop_
_symmetry_equiv_pos_site_id
_symmetry_equiv_pos_as_xyz
_cell_length_a                       17.5751
_cell_length_b                        7.8252
_cell_length_c                       10.1784
_cell_angle_alpha                   91.4947
_cell_angle_beta                    91.0089
_cell_angle_gamma                   88.9046

loop_
_atom_site_label
_atom_site_type_symbol
_atom_site_fract_x
_atom_site_fract_y
_atom_site_fract_z
_atom_site_charge
  Ge     Ge        0.052090000000021    0.000000000000000    0.372269999999958  0.0000
  Ge     Ge        0.447055477820949    0.947599799422379    0.372922729868168  0.0000
  Ge     Ge        0.942892553793741    0.933188966590138    0.616420229683196  0.0000
  Ge     Ge        0.544435999178070    0.005380232398015    0.111442142499850  0.0000
  Ge     Ge        0.952947162036133    0.944210548744842    0.107987751643234  0.0000
  Ge     Ge        0.440030388810326    0.935130547469613    0.849515232167649  0.0000
  Ge     Ge        0.146548303883803    0.309069744960343    0.290998129779921  0.0000
  Ge     Ge        0.351217659569274    0.632805559485506    0.285015158299193  0.0000
  Ge     Ge        0.822362203969895    0.221885630368597    0.727502335973802  0.0000
  Ge     Ge        0.663984149161831    0.687414474506290    0.723659031004108  0.0000
  Ge     Ge        0.847597767883809    0.620316201455442    0.721142637088885  0.0000
  Ge     Ge        0.171357210813582    0.714543931696952    0.286560549376892  0.0000
  Ge     Ge        0.325299786273958    0.225500181977117    0.286314649301582  0.0000
  Ge     Ge        0.647562606360933    0.311908253969473    0.050508454787815  0.0000
  Ge     Ge        0.848520746724972    0.633122135013982    0.043426311220202  0.0000
  Ge     Ge        0.321810226794040    0.220331685893349    0.968854451848034  0.0000
  Ge     Ge        0.163950788113941    0.691078039141969    0.969255030409487  0.0000
  Ge     Ge        0.348292563244694    0.622808479705996    0.965458500323542  0.0000
  Ge     Ge        0.669143473025627    0.716157846846376    0.041613854611543  0.0000
  Ge     Ge        0.825901722443636    0.229555382392853    0.046508620664248  0.0000
  Si     Si        0.552085289785515    0.982598323914434    0.617685576715791  0.0000
  Si     Si        0.052628812708790    0.983405006739847    0.858479806192642  0.0000
  Si     Si        0.643684027686620    0.293002832287621    0.737077590064405  0.0000
  Si     Si        0.142168432351281    0.294639145543654    0.980720512030624  0.0000
  O1     O1        0.084594344087127    0.204911924934267    0.388276043860451  0.0000
  O1     O1        0.414002962215242    0.744404688662343    0.384456448760744  0.0000
  O1     O1        0.863803510401480    0.060418035657321    0.637258131917406  0.0000
  O3     O3        0.614062850276737    0.831430922388460    0.628038569064433  0.0000
  O1     O1        0.915443116246243    0.727871319368732    0.638756732811776  0.0000
  O2     O2        0.582999983452370    0.167134187341625    0.665848890039851  0.0000
  O1     O1        0.125036170682056    0.852822507604491    0.391867889208003  0.0000
  O1     O1        0.374257815716490    0.095098313758488    0.391490137623805  0.0000
  O1     O1        0.973231401526009    0.957263528348864    0.458178071061311  0.0000
  O3     O3        0.527240649180391    0.992872940992754    0.465173516485581  0.0000
  O1     O1        0.029037790032115    0.979689118727905    0.206095009603186  0.0000
  O1     O1        0.471118629161956    0.966347557223589    0.209617102202735  0.0000
  O3     O3        0.022687891241252    0.992234325455041    0.708880246095946  0.0000
  O3     O3        0.474096184596392    0.941343512284943    0.690676030729614  0.0000
  O1     O1        0.580385416353807    0.207958488187904    0.134465381841044  0.0000
  O1     O1        0.915101392079531    0.745900330074528    0.130678665871731  0.0000
  O1     O1        0.360351768356526    0.064183226393724    0.869587004965058  0.0000
  O3     O3        0.116513196380415    0.834506731288249    0.869465569775171  0.0000
  O1     O1        0.412453915405059    0.729644457156083    0.875903008157579  0.0000
  O2     O2        0.084273618407807    0.170247195481638    0.901145562981314  0.0000
  O1     O1        0.618160672724732    0.859736452235179    0.133782065674506  0.0000
  O1     O1        0.881501860960119    0.093926224185682    0.135955813274249  0.0000
  O1     O1        0.513225050886721    0.996898211227657    0.950060629792954  0.0000
  O3     O3        0.979857234920684    0.942187035352475    0.943948991686486  0.0000
  O1     O1        0.160185984942512    0.512049456591627    0.347369904465052  0.0000
  O1     O1        0.337364814224200    0.434193225153539    0.342118557377947  0.0000
  O1     O1        0.840852949525690    0.414573413266069    0.659432519048299  0.0000
  O3     O3        0.647728733552545    0.476770787403944    0.669958903506085  0.0000
  O1     O1        0.229598344057996    0.188474393947944    0.289224137957410  0.0000
  O1     O1        0.266850118763439    0.750685305494635    0.280572876438352  0.0000
  O3     O3        0.724831231313389    0.195912731916112    0.732003266240062  0.0000
  O1     O1        0.759542349497271    0.721061202089125    0.711095546259207  0.0000
  O3     O3        0.113707045832105    0.322713192450233    0.128718283924562  0.0000
  O1     O1        0.381448822904264    0.616349872107880    0.125333269797498  0.0000
  O1     O1        0.855475834358521    0.212065720309530    0.886286192463642  0.0000
  O1     O1        0.634883837753292    0.721372429200482    0.881491676326625  0.0000
  O1     O1        0.874808856745652    0.603797370160111    0.882353640185783  0.0000
  O3     O3        0.620445249253583    0.331713683513849    0.885964057685700  0.0000
  O1     O1        0.134926687669771    0.721799927069030    0.127735866124331  0.0000
  O1     O1        0.357210825732410    0.204377880116064    0.126966063776841  0.0000
  O1     O1        0.659034310060127    0.516022648100619    0.107305008854505  0.0000
  O1     O1        0.836028056075868    0.436675604530908    0.106843889369135  0.0000
  O1     O1        0.341175514758620    0.416214956799661    0.907017804324750  0.0000
  O3     O3        0.146386733946004    0.480165060204151    0.917106367636897  0.0000
  O1     O1        0.730446623408477    0.190747438652783    0.055462727435501  0.0000
  O1     O1        0.764759752986314    0.753088338681648    0.040644540964752  0.0000
  O3     O3        0.224310335436403    0.201596010102351    0.981228215317968  0.0000
  O1     O1        0.259805613762605    0.721898121185262    0.960713616838895  0.0000
