data_c00906.vasp
_audit_creation_method             Generated by GULP
_audit_author_name                 Salvador R. G. Balestra
_symmetry_space_group_name_H-M     'P 1             '
_symmetry_Int_Tables_number        1

loop_
_symmetry_equiv_pos_site_id
_symmetry_equiv_pos_as_xyz
_cell_length_a                       17.6481
_cell_length_b                        7.8129
_cell_length_c                       10.1333
_cell_angle_alpha                   90.5738
_cell_angle_beta                    91.1461
_cell_angle_gamma                   88.7321

loop_
_atom_site_label
_atom_site_type_symbol
_atom_site_fract_x
_atom_site_fract_y
_atom_site_fract_z
_atom_site_charge
  Ge     Ge        0.052090000000021    0.000000000000000    0.372269999999958  0.0000
  Ge     Ge        0.440013236504201    0.948691885586275    0.371095824257333  0.0000
  Ge     Ge        0.941405438110928    0.947447561271619    0.614757937878703  0.0000
  Ge     Ge        0.549376772522409    0.000406716476892    0.124904368174628  0.0000
  Ge     Ge        0.951064660706691    0.935304848524098    0.112523804224000  0.0000
  Ge     Ge        0.444813003370378    0.935673274097822    0.867651706693986  0.0000
  Ge     Ge        0.054577215901945    0.991638230642229    0.861891210338036  0.0000
  Ge     Ge        0.149860637074269    0.313685781210754    0.305937233370532  0.0000
  Ge     Ge        0.819284314628167    0.232051090012344    0.724213955262282  0.0000
  Ge     Ge        0.664681896780488    0.710225648406524    0.732264833803641  0.0000
  Ge     Ge        0.846033385199858    0.634251492683056    0.729793844429357  0.0000
  Ge     Ge        0.637479147012609    0.306562447758402    0.733913102378531  0.0000
  Ge     Ge        0.170995897815524    0.713262055188713    0.292721489738244  0.0000
  Ge     Ge        0.646789036399764    0.310085035102859    0.054308820458107  0.0000
  Ge     Ge        0.849817021101602    0.624027863605394    0.053048515449654  0.0000
  Ge     Ge        0.323252123258319    0.218816805364477    0.987720512599058  0.0000
  Ge     Ge        0.171320449829408    0.697336070951301    0.975142389319828  0.0000
  Ge     Ge        0.353060102752137    0.624198653857872    0.982543353885488  0.0000
  Ge     Ge        0.672201517906786    0.712952485932451    0.053640517498096  0.0000
  Ge     Ge        0.824868039497610    0.220843849009412    0.043580997787836  0.0000
  Si     Si        0.545131422240548    0.994846300711794    0.621500791481415  0.0000
  Si     Si        0.348713414613910    0.633672294756054    0.292137567860593  0.0000
  Si     Si        0.325526616986093    0.240176904598383    0.301424498776541  0.0000
  Si     Si        0.147242760480522    0.299266445121264    0.989219643260278  0.0000
  O1     O1        0.086298924692146    0.202631651786970    0.394276367246013  0.0000
  O3     O3        0.401099510978435    0.747624728990280    0.388224841685794  0.0000
  O1     O1        0.865000703410947    0.083855178108315    0.627097284683671  0.0000
  O3     O3        0.616157171068886    0.867196117028597    0.645082340549181  0.0000
  O1     O1        0.913993628689911    0.743972863586114    0.649366187303474  0.0000
  O3     O3        0.569239815938338    0.188555245711227    0.651334076468489  0.0000
  O1     O1        0.128053565847375    0.859711418760541    0.393351690778394  0.0000
  O3     O3        0.373722625227441    0.113564181109121    0.395418191735027  0.0000
  O1     O1        0.972516982057765    0.953633845586198    0.453785159206808  0.0000
  O3     O3        0.518989763493452    0.977709616401000    0.468936300410547  0.0000
  O1     O1        0.028190697855807    0.981631703841052    0.206076699549598  0.0000
  O1     O1        0.471363263066303    0.958723174765090    0.212232020877512  0.0000
  O1     O1        0.021423969179978    0.007338827913560    0.701714077923727  0.0000
  O3     O3        0.471928213493833    0.945468046320774    0.704466748502035  0.0000
  O1     O1        0.585292217799248    0.201126113137766    0.149347976145794  0.0000
  O1     O1        0.917205204069996    0.733592547229118    0.140144525444962  0.0000
  O1     O1        0.365528423843529    0.062513639749199    0.896078614730319  0.0000
  O1     O1        0.124679936226046    0.836237790204871    0.870891469828759  0.0000
  O1     O1        0.420357328959369    0.727555812611094    0.897367203863174  0.0000
  O3     O3        0.084043720521779    0.193135849791379    0.911483469482705  0.0000
  O1     O1        0.621480523097328    0.851911705160636    0.149748771467361  0.0000
  O1     O1        0.877294672342856    0.080181401934725    0.136138220530727  0.0000
  O1     O1        0.520766747873684    0.997482440371474    0.960362330414832  0.0000
  O1     O1        0.976994881098949    0.937354286981499    0.949250120870208  0.0000
  O1     O1        0.152604762497685    0.518214533117684    0.361839203842152  0.0000
  O2     O2        0.337547609250641    0.440258393249743    0.343764851773005  0.0000
  O1     O1        0.833918323864305    0.433299835593315    0.663428475421199  0.0000
  O1     O1        0.645852973358246    0.508867066217214    0.670413016015319  0.0000
  O3     O3        0.237010276563819    0.205450806077792    0.314104385271829  0.0000
  O3     O3        0.267884985902899    0.732434023261470    0.282043044095263  0.0000
  O1     O1        0.723483579160165    0.199807784021483    0.725605528708833  0.0000
  O1     O1        0.760263055526758    0.744645865857633    0.723640795825775  0.0000
  O3     O3        0.123752461884372    0.326214495485188    0.140405993846320  0.0000
  O3     O3        0.383074375267595    0.623050121059783    0.147286072769455  0.0000
  O1     O1        0.854807945832937    0.210606964893651    0.882704399700052  0.0000
  O1     O1        0.637452874694996    0.723104021204788    0.893668383999557  0.0000
  O1     O1        0.874341417678855    0.602462156989743    0.890050350178342  0.0000
  O1     O1        0.612400832913216    0.333847816828255    0.894987377267810  0.0000
  O1     O1        0.138073277514259    0.730234212627328    0.131844436787938  0.0000
  O3     O3        0.352441748927860    0.208015352363160    0.152213341867942  0.0000
  O1     O1        0.662831982378005    0.509245799876442    0.116043607234087  0.0000
  O1     O1        0.837310330623035    0.423606515728855    0.110914493006571  0.0000
  O1     O1        0.346130333496028    0.416215515585131    0.929403821099019  0.0000
  O3     O3        0.156866182625043    0.485410476416835    0.926805146866262  0.0000
  O1     O1        0.729304048287213    0.187045424150666    0.044625974037135  0.0000
  O1     O1        0.767390408134069    0.748652861677616    0.054327778133856  0.0000
  O3     O3        0.226314362475627    0.192208151678598    0.982054128679894  0.0000
  O1     O1        0.266844994056893    0.728930162379750    0.968143500821296  0.0000
