data_c00925.vasp
_audit_creation_method             Generated by GULP
_audit_author_name                 Salvador R. G. Balestra
_symmetry_space_group_name_H-M     'P 1             '
_symmetry_Int_Tables_number        1

loop_
_symmetry_equiv_pos_site_id
_symmetry_equiv_pos_as_xyz
_cell_length_a                       17.6513
_cell_length_b                        7.8060
_cell_length_c                       10.1109
_cell_angle_alpha                   89.9128
_cell_angle_beta                    89.6600
_cell_angle_gamma                   88.5470

loop_
_atom_site_label
_atom_site_type_symbol
_atom_site_fract_x
_atom_site_fract_y
_atom_site_fract_z
_atom_site_charge
  Ge     Ge        0.052090000000021    0.000000000000000    0.372269999999958  0.0000
  Ge     Ge        0.438316312457423    0.946635930686091    0.347531372332739  0.0000
  Ge     Ge        0.945806888186314    0.957555763146781    0.622893574392833  0.0000
  Ge     Ge        0.541271768527843    0.016214029394868    0.090381910393715  0.0000
  Ge     Ge        0.937247767093540    0.950802588416679    0.136550142009296  0.0000
  Ge     Ge        0.442269949239315    0.951333823334429    0.829411800406962  0.0000
  Ge     Ge        0.045520716116679    0.012206175841574    0.885260781573373  0.0000
  Ge     Ge        0.342436314215691    0.631285042505292    0.273401177742975  0.0000
  Ge     Ge        0.819526128318090    0.239010914778059    0.692954028764947  0.0000
  Ge     Ge        0.664271438586552    0.720092816931894    0.693460020040939  0.0000
  Ge     Ge        0.845718407592496    0.642873554957762    0.690092895059168  0.0000
  Ge     Ge        0.638087659100924    0.315856509462431    0.697798246774451  0.0000
  Ge     Ge        0.317067691551080    0.231110877824301    0.267464824175898  0.0000
  Ge     Ge        0.638411113662645    0.327417938212226    0.019381397957694  0.0000
  Ge     Ge        0.844766579073884    0.642085523027620    0.011923787123200  0.0000
  Ge     Ge        0.320035651398695    0.235007786434106    0.943524465480466  0.0000
  Ge     Ge        0.167326650588494    0.716188537972857    0.949632952563662  0.0000
  Ge     Ge        0.348209974374428    0.639608048962937    0.950039320372678  0.0000
  Ge     Ge        0.665690369330451    0.730038712449133    0.014105210930863  0.0000
  Ge     Ge        0.816689576657980    0.236336213848963    0.014266700234109  0.0000
  Si     Si        0.547677223340241    0.005747470493592    0.582500239929145  0.0000
  Si     Si        0.141330498076765    0.311957123892173    0.253011201998685  0.0000
  Si     Si        0.164724528112976    0.705537602800714    0.261101546081193  0.0000
  Si     Si        0.144643258578298    0.317418151929148    0.943576013448556  0.0000
  O3     O3        0.079346757237836    0.205907731829372    0.331243950880190  0.0000
  O1     O1        0.403598205116358    0.745743726404809    0.368189361375017  0.0000
  O1     O1        0.871016487326186    0.099474986014575    0.596482153476432  0.0000
  O3     O3        0.618082176178767    0.875207937951441    0.599918152726972  0.0000
  O1     O1        0.911218209404125    0.755604473698736    0.602079081543144  0.0000
  O3     O3        0.571448521803838    0.198053924397885    0.614572958809986  0.0000
  O3     O3        0.120494287636020    0.839193772800640    0.354564722963225  0.0000
  O1     O1        0.362402202710231    0.086419410624498    0.367425593954455  0.0000
  O1     O1        0.026544758366642    0.999505791601452    0.536855096014760  0.0000
  O3     O3        0.519239194822432    0.995194954005078    0.431423082141611  0.0000
  O1     O1        0.968119116761859    0.955884927322557    0.297499733297146  0.0000
  O1     O1        0.464847371687847    0.967830635946611    0.183038386138747  0.0000
  O1     O1        0.969679103625973    0.981346555286692    0.788006047920421  0.0000
  O3     O3        0.474219128883810    0.951758757431520    0.666986933488948  0.0000
  O1     O1        0.574279057071954    0.219529334716221    0.113578487914801  0.0000
  O1     O1        0.910940588107688    0.745628537001644    0.101844713151682  0.0000
  O1     O1        0.363558007541856    0.083913858739972    0.846689759430673  0.0000
  O1     O1        0.114828351061596    0.855676530735392    0.857317083598291  0.0000
  O1     O1        0.416497740345074    0.745565237888568    0.865365994511844  0.0000
  O3     O3        0.083362691922445    0.215088558284001    0.862398949338341  0.0000
  O1     O1        0.615357285826915    0.870870389980352    0.110575493356658  0.0000
  O1     O1        0.861772037229222    0.089981379126055    0.113703408272831  0.0000
  O1     O1        0.514622982854013    0.015510216997143    0.925803004111010  0.0000
  O1     O1        0.015329524692001    0.005617587195629    0.046478463650488  0.0000
  O2     O2        0.149944697295324    0.507136305544817    0.305609829966172  0.0000
  O1     O1        0.336823001173184    0.428897019566144    0.332084146810802  0.0000
  O1     O1        0.833218633548569    0.441944873976781    0.630247195062802  0.0000
  O1     O1        0.647649687590679    0.518230354670890    0.632586690525533  0.0000
  O3     O3        0.220046089413295    0.207114288698527    0.270468764535857  0.0000
  O3     O3        0.253944416085587    0.735284255002468    0.269307939668352  0.0000
  O1     O1        0.723660134032905    0.205721485165396    0.691561631024088  0.0000
  O1     O1        0.759695360899202    0.754072454838537    0.689525583367387  0.0000
  O2     O2        0.119806199495729    0.325765021077884    0.098721686211000  0.0000
  O1     O1        0.374365973461408    0.623693701155082    0.112913217658641  0.0000
  O1     O1        0.850015589131680    0.223501894617218    0.854510291015993  0.0000
  O1     O1        0.632592556277343    0.738589591902164    0.853774194010336  0.0000
  O1     O1        0.875439744288757    0.624225300654835    0.851227831508386  0.0000
  O1     O1        0.608951241846446    0.347203137476245    0.857428558176013  0.0000
  O3     O3        0.136183951456021    0.736513379149214    0.112490224388021  0.0000
  O1     O1        0.347973648041390    0.214460215657883    0.106013400547648  0.0000
  O1     O1        0.652515448905457    0.527324306713061    0.078850386125353  0.0000
  O1     O1        0.830022613787143    0.441289790408177    0.072879464256103  0.0000
  O1     O1        0.340607501351120    0.436816714026814    0.888232029857426  0.0000
  O3     O3        0.153675455604873    0.508653836094372    0.891882746093982  0.0000
  O1     O1        0.721065256839847    0.204437941652415    0.014290945964125  0.0000
  O1     O1        0.761140876624426    0.762836407862453    0.012842929817326  0.0000
  O3     O3        0.223271826417210    0.209313859501709    0.935998485940025  0.0000
  O1     O1        0.262270770360587    0.750153417411496    0.940266227372470  0.0000
