data_c00971.vasp
_audit_creation_method             Generated by GULP
_audit_author_name                 Salvador R. G. Balestra
_symmetry_space_group_name_H-M     'P 1             '
_symmetry_Int_Tables_number        1

loop_
_symmetry_equiv_pos_site_id
_symmetry_equiv_pos_as_xyz
_cell_length_a                       17.5765
_cell_length_b                        7.8341
_cell_length_c                       10.2097
_cell_angle_alpha                   89.4679
_cell_angle_beta                    91.5300
_cell_angle_gamma                   91.4820

loop_
_atom_site_label
_atom_site_type_symbol
_atom_site_fract_x
_atom_site_fract_y
_atom_site_fract_z
_atom_site_charge
  Ge     Ge        0.052090000000021    0.000000000000000    0.372269999999958  0.0000
  Ge     Ge        0.443159668539713    0.057293082012118    0.363065509813417  0.0000
  Ge     Ge        0.941821558548158    0.058363416081480    0.614445273494547  0.0000
  Ge     Ge        0.547927733487562    0.999776112603171    0.116220496837092  0.0000
  Ge     Ge        0.942970843744819    0.058858990619180    0.116741096919278  0.0000
  Ge     Ge        0.439316625134980    0.061032801067890    0.861523294510065  0.0000
  Ge     Ge        0.170689569363250    0.286277016498313    0.257290933959630  0.0000
  Ge     Ge        0.324235743924488    0.760704788577670    0.252819728547741  0.0000
  Ge     Ge        0.839826394959105    0.371638594349945    0.675258088488006  0.0000
  Ge     Ge        0.635887862013033    0.701454370680948    0.686458443113318  0.0000
  Ge     Ge        0.819454403405843    0.770632505656799    0.682861077837777  0.0000
  Ge     Ge        0.141983417046813    0.685216771818897    0.257807977888604  0.0000
  Ge     Ge        0.669948683724405    0.289301238780964    0.999126893374683  0.0000
  Ge     Ge        0.820929494372308    0.773109844994420    0.000167913347065  0.0000
  Ge     Ge        0.339008041940842    0.367815796788389    0.931483644391592  0.0000
  Ge     Ge        0.136831716079481    0.691249780314688    0.939347391565587  0.0000
  Ge     Ge        0.318015974846168    0.772463970295437    0.937373556966144  0.0000
  Ge     Ge        0.158921677641751    0.287443906999636    0.939865997615875  0.0000
  Ge     Ge        0.638948963935485    0.690105637558145    0.001135762251490  0.0000
  Ge     Ge        0.849466697411958    0.371183292101816    0.996698671087778  0.0000
  Si     Si        0.544276669433482    0.019991063031667    0.619173109242789  0.0000
  Si     Si        0.040428432852615    0.997982786014054    0.870043954799761  0.0000
  Si     Si        0.661279387242931    0.307838001574772    0.685136742129231  0.0000
  Si     Si        0.347870508032824    0.364078114850396    0.243364817118664  0.0000
  O1     O1        0.131119772741937    0.129447292173893    0.351949212118089  0.0000
  O1     O1        0.373615542341153    0.900874487123419    0.352222838642694  0.0000
  O1     O1        0.902793277034335    0.255127669381613    0.590337402517829  0.0000
  O3     O3        0.576436308617571    0.833212013311187    0.593678317540044  0.0000
  O1     O1        0.868599758620500    0.913072233380377    0.587294239405655  0.0000
  O2     O2        0.611574949839922    0.164923547666762    0.604941877727222  0.0000
  O1     O1        0.077107648503929    0.793639142088066    0.345183409995330  0.0000
  O3     O3        0.410486983921720    0.257946432968529    0.323183943764544  0.0000
  O1     O1        0.021433192053800    0.022440916787218    0.529849034973635  0.0000
  O3     O3        0.472916436179800    0.062572954145452    0.526984523175908  0.0000
  O1     O1        0.975151955855036    0.057486290090064    0.276455127050598  0.0000
  O1     O1        0.521740028170806    0.014004687591685    0.276289201820935  0.0000
  O3     O3        0.967768152746568    0.037863624743890    0.780453552738456  0.0000
  O3     O3        0.516588467401426    0.023507445964219    0.768919755566932  0.0000
  O1     O1        0.624681017355188    0.132832393948203    0.084695442284632  0.0000
  O1     O1        0.865850790763446    0.922511754409721    0.097856162303968  0.0000
  O1     O1        0.402319726483711    0.260944458343789    0.840968760487211  0.0000
  O3     O3        0.073688045705553    0.811295956712420    0.845788608402006  0.0000
  O1     O1        0.366581432090206    0.912109466116256    0.839250186866321  0.0000
  O3     O3        0.106058764278881    0.142484013852775    0.847565293353281  0.0000
  O1     O1        0.574288544768156    0.793200422668302    0.091478788933960  0.0000
  O1     O1        0.919649992976976    0.265227723765577    0.079471575292022  0.0000
  O1     O1        0.470066022321202    0.053124559694971    0.022825417598748  0.0000
  O3     O3        0.017435744964463    0.996616494909680    0.022295880214398  0.0000
  O1     O1        0.152879451469489    0.483140100041414    0.320834606046551  0.0000
  O3     O3        0.338374946558412    0.550551146769667    0.303901282620352  0.0000
  O1     O1        0.832957492725892    0.573283261699200    0.614629721970122  0.0000
  O3     O3        0.644213536857374    0.495983202765888    0.626351341143929  0.0000
  O3     O3        0.267740774964482    0.258872091793169    0.248061060277567  0.0000
  O1     O1        0.228450549102454    0.793978860604125    0.259432912156471  0.0000
  O3     O3        0.750181931302686    0.270413987451572    0.673875349060519  0.0000
  O1     O1        0.723633112557331    0.802092433269409    0.686181103435225  0.0000
  O1     O1        0.132584185481542    0.273705848142381    0.100701326855904  0.0000
  O1     O1        0.354437833149971    0.789878521724160    0.095590119378812  0.0000
  O1     O1        0.871822115438054    0.389656603093091    0.834713768099304  0.0000
  O1     O1        0.603496951169707    0.684666089360997    0.842049452501786  0.0000
  O1     O1        0.852888078404462    0.784986240487595    0.842651224688315  0.0000
  O3     O3        0.638730182268249    0.302045455805994    0.836610587428442  0.0000
  O1     O1        0.109488335647422    0.664779819177006    0.098536435165840  0.0000
  O3     O3        0.371229954815664    0.388086146889147    0.093331570221298  0.0000
  O1     O1        0.652392377560294    0.488055518136190    0.061191719598416  0.0000
  O1     O1        0.838757125277608    0.570338606166913    0.059580752346307  0.0000
  O1     O1        0.327442681252529    0.570227262220239    0.874726571329347  0.0000
  O1     O1        0.144320966268195    0.490737363876491    0.877618731113071  0.0000
  O1     O1        0.765390024956866    0.253942503082403    0.006585951793363  0.0000
  O1     O1        0.724661413694347    0.801555750256819    0.999690312389077  0.0000
  O1     O1        0.254367216022853    0.251880380551246    0.930150194937571  0.0000
  O1     O1        0.222180714388764    0.804623080985109    0.941988480206779  0.0000
