data_c00969.vasp
_audit_creation_method             Generated by GULP
_audit_author_name                 Salvador R. G. Balestra
_symmetry_space_group_name_H-M     'P 1             '
_symmetry_Int_Tables_number        1

loop_
_symmetry_equiv_pos_site_id
_symmetry_equiv_pos_as_xyz
_cell_length_a                       17.7548
_cell_length_b                        7.8338
_cell_length_c                       10.4034
_cell_angle_alpha                   91.1391
_cell_angle_beta                    90.8417
_cell_angle_gamma                   90.8827

loop_
_atom_site_label
_atom_site_type_symbol
_atom_site_fract_x
_atom_site_fract_y
_atom_site_fract_z
_atom_site_charge
  Ge     Ge        0.052090000000021    0.000000000000000    0.372269999999958  0.0000
  Ge     Ge        0.450881379847500    0.045644786453710    0.345230117275041  0.0000
  Ge     Ge        0.947414249742392    0.003267907448311    0.624760940242496  0.0000
  Ge     Ge        0.549715814679947    0.036358370471430    0.084326807067656  0.0000
  Ge     Ge        0.944376716616553    0.017192938787012    0.117968563954797  0.0000
  Ge     Ge        0.442174150420729    0.036647968642289    0.828757778169242  0.0000
  Ge     Ge        0.173013179162201    0.286202099324752    0.257371493084796  0.0000
  Ge     Ge        0.329352067407539    0.763327255991486    0.260756399260207  0.0000
  Ge     Ge        0.826795679057597    0.285637557482433    0.699236736511328  0.0000
  Ge     Ge        0.660882601503622    0.728974496358124    0.696819644160129  0.0000
  Ge     Ge        0.841978325887148    0.691300559849427    0.689183283248169  0.0000
  Ge     Ge        0.149790223243512    0.691284827070422    0.265223842437221  0.0000
  Ge     Ge        0.352164658617995    0.352321016232052    0.254627394426661  0.0000
  Ge     Ge        0.650994613573947    0.354045904070538    0.018032984488693  0.0000
  Ge     Ge        0.348008101759221    0.350367075603311    0.941270102879173  0.0000
  Ge     Ge        0.142531623274502    0.694339601156405    0.953774689584497  0.0000
  Ge     Ge        0.324151344960542    0.760729790792364    0.949808598253711  0.0000
  Ge     Ge        0.166178771183589    0.291046239183455    0.943908476856457  0.0000
  Ge     Ge        0.670324783254192    0.757893025702174    0.008416253207955  0.0000
  Ge     Ge        0.829502102621317    0.304620547312313    0.010226489553750  0.0000
  Si     Si        0.550919150512860    0.019606067604577    0.595454616861876  0.0000
  Si     Si        0.048667147543111    0.006222185800770    0.877791818143190  0.0000
  Si     Si        0.649253074509515    0.329876929401133    0.710596267304361  0.0000
  Si     Si        0.845606666219660    0.707847420090669    0.996585319183710  0.0000
  O1     O1        0.123671651407599    0.143344099986828    0.345623468798568  0.0000
  O1     O1        0.379395023969131    0.897931585263302    0.363084102490096  0.0000
  O1     O1        0.874920639643445    0.144959142728143    0.606385826092178  0.0000
  O3     O3        0.605010092170581    0.858890068493886    0.605001439592303  0.0000
  O1     O1        0.906299259453950    0.804656656652831    0.603921795300904  0.0000
  O2     O2        0.590749793987811    0.197251749709273    0.641993321829026  0.0000
  O1     O1        0.086835596850179    0.798087605313883    0.358781999133679  0.0000
  O1     O1        0.415282442186211    0.247162659971871    0.349614200444707  0.0000
  O1     O1        0.021169805391522    0.034885403573413    0.526727358004996  0.0000
  O3     O3        0.527362425342967    0.031692590412778    0.446905306230600  0.0000
  O1     O1        0.974549743528373    0.022344300875467    0.274541458711165  0.0000
  O1     O1        0.482131175793369    0.998575659615495    0.192489363242722  0.0000
  O3     O3        0.978828540595496    0.029548424758939    0.783054470465434  0.0000
  O3     O3        0.474356015479994    0.998731726551494    0.674401961888062  0.0000
  O1     O1        0.583958674039386    0.242906639304476    0.098390702311953  0.0000
  O3     O3        0.905146280741001    0.819074051809239    0.079633372883235  0.0000
  O1     O1        0.410989303701410    0.241988381387861    0.848727193178223  0.0000
  O3     O3        0.080723506162379    0.815643270515565    0.864846831161985  0.0000
  O1     O1        0.365909725839587    0.903431227170462    0.851286677071671  0.0000
  O3     O3        0.115580660571182    0.142414397213376    0.852026775773260  0.0000
  O1     O1        0.626219914856428    0.904395205751418    0.100970339831028  0.0000
  O1     O1        0.882636717798537    0.182172433683099    0.108530416646724  0.0000
  O1     O1        0.514040169294820    0.992246166721680    0.932543908152979  0.0000
  O3     O3        0.022368429397408    0.045251005115803    0.023345508383370  0.0000
  O1     O1        0.162714017485414    0.490072444940833    0.320604726034032  0.0000
  O1     O1        0.341823218689970    0.556099572598500    0.309590849918282  0.0000
  O1     O1        0.839617955257497    0.484326916447770    0.636121663422990  0.0000
  O3     O3        0.650475420235819    0.515080489278787    0.646660985340350  0.0000
  O1     O1        0.267206753136755    0.241942902734409    0.256987925781241  0.0000
  O1     O1        0.234611964604907    0.801679138691637    0.264916287582537  0.0000
  O3     O3        0.730736139185383    0.244231554083314    0.704367049905509  0.0000
  O1     O1        0.754244590635685    0.780413068563994    0.677895533947409  0.0000
  O1     O1        0.139930278418091    0.288304003700586    0.101945630104126  0.0000
  O1     O1        0.359289969989049    0.779339211635818    0.104540277701289  0.0000
  O1     O1        0.858756008376119    0.274633345270345    0.855537970827898  0.0000
  O1     O1        0.635381188269545    0.755750334198156    0.852975658009203  0.0000
  O3     O3        0.870926029487661    0.691455254892849    0.849531220017223  0.0000
  O3     O3        0.624382970512666    0.358096551183425    0.856425600407171  0.0000
  O1     O1        0.113807266564122    0.684154402543175    0.110284841314728  0.0000
  O1     O1        0.381634324966692    0.348217276596015    0.097575949078799  0.0000
  O1     O1        0.656457887868506    0.559628287126500    0.073649036512882  0.0000
  O3     O3        0.837263337160951    0.520120341595642    0.053770220145600  0.0000
  O1     O1        0.338953460495328    0.555852489490793    0.892431798293384  0.0000
  O1     O1        0.148787349079481    0.493277633870804    0.888154311587554  0.0000
  O1     O1        0.736014658877100    0.253299961927976    0.026528865568432  0.0000
  O3     O3        0.765771566722385    0.802957604100822    0.999814659371265  0.0000
  O1     O1        0.260535264791279    0.251506824946939    0.935073194560319  0.0000
  O1     O1        0.229235177586939    0.794612503239535    0.955562299530105  0.0000
