data_c00917.vasp
_audit_creation_method             Generated by GULP
_audit_author_name                 Salvador R. G. Balestra
_symmetry_space_group_name_H-M     'P 1             '
_symmetry_Int_Tables_number        1

loop_
_symmetry_equiv_pos_site_id
_symmetry_equiv_pos_as_xyz
_cell_length_a                       17.8660
_cell_length_b                        7.8782
_cell_length_c                       10.1194
_cell_angle_alpha                   90.8377
_cell_angle_beta                    91.4575
_cell_angle_gamma                   90.0765

loop_
_atom_site_label
_atom_site_type_symbol
_atom_site_fract_x
_atom_site_fract_y
_atom_site_fract_z
_atom_site_charge
  Ge     Ge        0.052090000000021    0.000000000000000    0.372269999999958  0.0000
  Ge     Ge        0.437667378775636    0.979846360887825    0.326353276980647  0.0000
  Ge     Ge        0.935866886965955    0.971337733219420    0.606314517090054  0.0000
  Ge     Ge        0.547022584608351    0.971138229339584    0.077934399113316  0.0000
  Ge     Ge        0.941864318657773    0.988409198114775    0.116201403291581  0.0000
  Ge     Ge        0.440542067468989    0.957237455556041    0.820736280036148  0.0000
  Ge     Ge        0.043139292695492    0.977483141326194    0.863174013231920  0.0000
  Ge     Ge        0.148988869271015    0.311215743015477    0.263933345376534  0.0000
  Ge     Ge        0.829699088698388    0.280524651151193    0.672733167122759  0.0000
  Ge     Ge        0.638086620007506    0.650040532580890    0.681967529992720  0.0000
  Ge     Ge        0.820038977657008    0.682278950371071    0.670053061237611  0.0000
  Ge     Ge        0.166741700188231    0.710812207036498    0.249697092206492  0.0000
  Ge     Ge        0.665896220265867    0.254951563621555    0.008726116922578  0.0000
  Ge     Ge        0.823664966276302    0.702655634298813    0.989978919196544  0.0000
  Ge     Ge        0.322776499884895    0.239576644475427    0.945392132628907  0.0000
  Ge     Ge        0.164828111543307    0.698084769073409    0.928523693209360  0.0000
  Ge     Ge        0.343906275921986    0.650395490039656    0.937012494036513  0.0000
  Ge     Ge        0.144501289041773    0.292982994198995    0.940185597930960  0.0000
  Ge     Ge        0.644045129623466    0.656115622711933    0.999618195278091  0.0000
  Ge     Ge        0.843505767743456    0.296200325394995    0.997280942223593  0.0000
  Si     Si        0.542872875982438    0.962539817211274    0.576341195192402  0.0000
  Si     Si        0.344144425738927    0.662289306136104    0.248452210774161  0.0000
  Si     Si        0.653358458106119    0.252789162981969    0.691078651482723  0.0000
  Si     Si        0.326498236240129    0.268403429945072    0.258817089043882  0.0000
  O1     O1        0.088709664796892    0.200046978695984    0.358128877360312  0.0000
  O3     O3        0.395654356400586    0.781948734882746    0.342440861595758  0.0000
  O1     O1        0.885998942111470    0.154647800043289    0.579560586122468  0.0000
  O3     O3        0.579152391085584    0.777033041320995    0.588211635612129  0.0000
  O1     O1        0.873584064785642    0.809186148212386    0.573801767993058  0.0000
  O2     O2        0.601953576681622    0.108643333570048    0.620576229463424  0.0000
  O1     O1        0.124604266226092    0.864646137432961    0.340821953585954  0.0000
  O3     O3        0.374948531616604    0.145120273311155    0.352402763690598  0.0000
  O1     O1        0.019693685447690    0.967921462005164    0.528655657810406  0.0000
  O3     O3        0.517224362570039    0.992980973554391    0.425557481207341  0.0000
  O1     O1        0.971814768116036    0.971128122729072    0.277963391471315  0.0000
  O1     O1        0.469765271614669    0.998778856307416    0.169261372105830  0.0000
  O1     O1        0.962798665458091    0.958399349328960    0.771282284263390  0.0000
  O3     O3        0.466952195714249    0.973979830871083    0.658001960943127  0.0000
  O1     O1        0.615543054129212    0.123174074928217    0.103184210850314  0.0000
  O1     O1        0.869725318361749    0.848562771672603    0.087715329684054  0.0000
  O1     O1        0.369461265876512    0.098107403355257    0.850030350080139  0.0000
  O1     O1        0.111301456887646    0.828404042136895    0.831761658151124  0.0000
  O1     O1        0.408313940420323    0.754671484609661    0.847590151903549  0.0000
  O1     O1        0.080991362602233    0.176974975050450    0.848153071963072  0.0000
  O1     O1        0.587093092897685    0.775344097160618    0.097628839896692  0.0000
  O1     O1        0.911617314309054    0.191621489975170    0.084173935345574  0.0000
  O1     O1        0.518308302704165    0.999465702089404    0.915768516343438  0.0000
  O1     O1        0.018662077867533    0.945108440592460    0.024808618730355  0.0000
  O1     O1        0.149478345213965    0.517357073378292    0.318654286378828  0.0000
  O2     O2        0.339023994636104    0.467950340579367    0.298911087938683  0.0000
  O1     O1        0.828079167089837    0.479104310663171    0.608939431532136  0.0000
  O3     O3        0.639817037393277    0.438155777100589    0.628623066497620  0.0000
  O3     O3        0.239120643269334    0.227795475479096    0.270656002783236  0.0000
  O3     O3        0.262101092857198    0.744627946196240    0.244350990486473  0.0000
  O3     O3        0.739400189625802    0.198622731651585    0.675846231559313  0.0000
  O1     O1        0.726670758772723    0.731822685719822    0.670412404283738  0.0000
  O1     O1        0.117231217668868    0.301432545777718    0.102537879454288  0.0000
  O3     O3        0.375475953037250    0.661977800321222    0.101223189826166  0.0000
  O1     O1        0.864588403992293    0.290562395738303    0.832385093358759  0.0000
  O1     O1        0.606860421528128    0.656061676723632    0.840148053789295  0.0000
  O1     O1        0.854355397679770    0.699161032944714    0.830436572792923  0.0000
  O3     O3        0.635088462695606    0.266888252421395    0.844854084330287  0.0000
  O1     O1        0.134943141871425    0.710214957919096    0.089106218889592  0.0000
  O3     O3        0.352753112008007    0.236150977548628    0.109809975128472  0.0000
  O1     O1        0.654871292976908    0.460317817145832    0.065995806884644  0.0000
  O1     O1        0.837333910703318    0.502132512669057    0.052115133533956  0.0000
  O1     O1        0.336131813680991    0.442287769835657    0.888719203134540  0.0000
  O1     O1        0.153038746811037    0.490544208572719    0.875892795134462  0.0000
  O1     O1        0.758070364543057    0.198445036414560    0.015312726849931  0.0000
  O1     O1        0.730351627682334    0.750841149331770    0.986640758364690  0.0000
  O1     O1        0.229587520646541    0.190853684697028    0.938785849088133  0.0000
  O1     O1        0.258043044064725    0.747475235762889    0.921641549059572  0.0000
