data_c00980.vasp
_audit_creation_method             Generated by GULP
_audit_author_name                 Salvador R. G. Balestra
_symmetry_space_group_name_H-M     'P 1             '
_symmetry_Int_Tables_number        1

loop_
_symmetry_equiv_pos_site_id
_symmetry_equiv_pos_as_xyz
_cell_length_a                       17.6358
_cell_length_b                        7.8048
_cell_length_c                       10.2075
_cell_angle_alpha                   89.2769
_cell_angle_beta                    90.7590
_cell_angle_gamma                   89.0222

loop_
_atom_site_label
_atom_site_type_symbol
_atom_site_fract_x
_atom_site_fract_y
_atom_site_fract_z
_atom_site_charge
  Ge     Ge        0.052090000000021    0.000000000000000    0.372269999999958  0.0000
  Ge     Ge        0.450273519286513    0.956646109231347    0.402728541622546  0.0000
  Ge     Ge        0.942688828626840    0.959410343584754    0.619726357011631  0.0000
  Ge     Ge        0.556113407152146    0.996979380208477    0.153532386135672  0.0000
  Ge     Ge        0.952929699713995    0.936966608144411    0.107993239854011  0.0000
  Ge     Ge        0.447800800747702    0.946554608293584    0.900684438376901  0.0000
  Ge     Ge        0.146429535606674    0.318129975657813    0.296188602216062  0.0000
  Ge     Ge        0.355585218020718    0.642447059996013    0.284688876514597  0.0000
  Ge     Ge        0.826343136425500    0.255090813135050    0.718403923842639  0.0000
  Ge     Ge        0.667391247311746    0.724983399329856    0.732666659149967  0.0000
  Ge     Ge        0.646182749603462    0.322609238366423    0.717494359906107  0.0000
  Ge     Ge        0.175459291844196    0.722027608744058    0.291258276008818  0.0000
  Ge     Ge        0.326621841683741    0.238094763345369    0.291530330113098  0.0000
  Ge     Ge        0.850772500410375    0.625139106685046    0.049964487262985  0.0000
  Ge     Ge        0.323932423437768    0.230871246513573    0.974840697761303  0.0000
  Ge     Ge        0.168949766208457    0.717414321985128    0.972869612735342  0.0000
  Ge     Ge        0.348702167250391    0.633968585808220    0.965347196119712  0.0000
  Ge     Ge        0.143126434088989    0.310405212451485    0.979101662757111  0.0000
  Ge     Ge        0.671819419267294    0.701512542459271    0.049993134930531  0.0000
  Ge     Ge        0.827155274002217    0.223077974407718    0.035295758767838  0.0000
  Si     Si        0.550528540336857    0.010539769054930    0.655897161145891  0.0000
  Si     Si        0.052491369157404    0.003159668905356    0.858954398739644  0.0000
  Si     Si        0.844667111592478    0.651653472059489    0.736098631283241  0.0000
  Si     Si        0.651078021943764    0.303703310325150    0.030669663172975  0.0000
  O1     O1        0.084146354145134    0.204807426162016    0.390601316113808  0.0000
  O1     O1        0.424733956535109    0.751192271551088    0.366896549969728  0.0000
  O1     O1        0.877253852533231    0.122864546097361    0.619094810218574  0.0000
  O3     O3        0.621411576343311    0.879982994912149    0.638007856722907  0.0000
  O3     O3        0.905732385609852    0.763554771412484    0.660663021568666  0.0000
  O3     O3        0.578787682630596    0.203866837070229    0.635500285306884  0.0000
  O1     O1        0.127833966893989    0.859784167530996    0.390611818785927  0.0000
  O1     O1        0.372820017597160    0.090024007861323    0.389327280539332  0.0000
  O1     O1        0.975341748607827    0.947396253538961    0.461648904540722  0.0000
  O3     O3        0.479949337624928    0.964522820395937    0.565910828609791  0.0000
  O1     O1        0.025491544963955    0.985561796107838    0.207960040731547  0.0000
  O1     O1        0.525473275680370    0.020404059450732    0.311225838251448  0.0000
  O3     O3        0.024032541946586    0.003173376253694    0.708938377596751  0.0000
  O3     O3        0.524766996167254    0.991144035940723    0.806868737698472  0.0000
  O3     O3        0.588726184206733    0.195452115467296    0.104522605133552  0.0000
  O1     O1        0.920570325518808    0.731539972878120    0.130227376710198  0.0000
  O1     O1        0.373893723068572    0.091551175259827    0.880498834604630  0.0000
  O3     O3        0.122763430743861    0.871221015283715    0.877515440343422  0.0000
  O1     O1        0.412073166950412    0.746236656179850    0.873985500366238  0.0000
  O3     O3        0.076513494433633    0.195379735020194    0.893699106506926  0.0000
  O1     O1        0.623456095232444    0.835723998009395    0.150982907857793  0.0000
  O1     O1        0.874902480228523    0.071250566892587    0.125172053200691  0.0000
  O1     O1        0.478111265191602    0.947163817527210    0.061754124114829  0.0000
  O3     O3        0.981849473680203    0.947109897447195    0.946079597327660  0.0000
  O1     O1        0.161543893247114    0.518007498141719    0.353990518096147  0.0000
  O1     O1        0.342639843770578    0.441277397634806    0.349209736096247  0.0000
  O3     O3        0.835101375482139    0.468068098944190    0.668863777924744  0.0000
  O1     O1        0.648224934319950    0.530027737793543    0.662850080739956  0.0000
  O1     O1        0.230976406097984    0.203738094549763    0.290883812211377  0.0000
  O1     O1        0.271073815301234    0.757844303725250    0.289451259151631  0.0000
  O1     O1        0.731223171759841    0.216145649915742    0.704007928622457  0.0000
  O3     O3        0.764558824050478    0.755242513631180    0.733809733240388  0.0000
  O1     O1        0.113308147661299    0.334805944242766    0.136843764977895  0.0000
  O1     O1        0.380857595556522    0.614857390295484    0.124984901696522  0.0000
  O1     O1        0.857270780815000    0.214952318622881    0.875639201060509  0.0000
  O1     O1        0.638667156887871    0.736428981288354    0.892537029925889  0.0000
  O3     O3        0.870846765883562    0.611786062247948    0.883979177266276  0.0000
  O3     O3        0.625011002047610    0.342394270902967    0.881887271440247  0.0000
  O1     O1        0.140181671905624    0.732662018827982    0.132500201221371  0.0000
  O1     O1        0.358486373804987    0.218937030374052    0.133391381926943  0.0000
  O3     O3        0.662285042540885    0.487280526280464    0.096992294938904  0.0000
  O1     O1        0.845144494746525    0.418934519866862    0.104373328419436  0.0000
  O1     O1        0.335172445143177    0.433389389349012    0.907881683393069  0.0000
  O1     O1        0.152341084923998    0.513836154222481    0.915627993593980  0.0000
  O3     O3        0.729808068480045    0.194693652922059    0.032471946800648  0.0000
  O1     O1        0.766940192770658    0.738863862998827    0.062118689006909  0.0000
  O1     O1        0.227987268321493    0.198184941095434    0.977247730356499  0.0000
  O1     O1        0.264507377817266    0.750118746763206    0.967966955336188  0.0000
