data_c00986.vasp
_audit_creation_method             Generated by GULP
_audit_author_name                 Salvador R. G. Balestra
_symmetry_space_group_name_H-M     'P 1             '
_symmetry_Int_Tables_number        1

loop_
_symmetry_equiv_pos_site_id
_symmetry_equiv_pos_as_xyz
_cell_length_a                       17.4987
_cell_length_b                        7.7375
_cell_length_c                       10.5262
_cell_angle_alpha                   88.4251
_cell_angle_beta                    91.7157
_cell_angle_gamma                   88.9602

loop_
_atom_site_label
_atom_site_type_symbol
_atom_site_fract_x
_atom_site_fract_y
_atom_site_fract_z
_atom_site_charge
  Ge     Ge        0.052090000000021    0.000000000000000    0.372269999999958  0.0000
  Ge     Ge        0.463389827914440    0.014492544958344    0.332849134852270  0.0000
  Ge     Ge        0.941072741466191    0.014079699794649    0.615424491307803  0.0000
  Ge     Ge        0.546781752915896    0.030751235960712    0.061190304854436  0.0000
  Ge     Ge        0.939194447151487    0.007425932744282    0.117750565614541  0.0000
  Ge     Ge        0.429364861295821    0.045997174119733    0.814805272843499  0.0000
  Ge     Ge        0.176856129908317    0.276593823514099    0.258478201766606  0.0000
  Ge     Ge        0.331555896167792    0.758641946894930    0.247658835702767  0.0000
  Ge     Ge        0.817214710979560    0.286687889013826    0.695563411948519  0.0000
  Ge     Ge        0.838512965478352    0.704253674467872    0.693850543629210  0.0000
  Ge     Ge        0.150388675795437    0.689872515982253    0.267527279237983  0.0000
  Ge     Ge        0.358170269283775    0.335414021758447    0.240067516736201  0.0000
  Ge     Ge        0.633337875717132    0.368030021999777    0.994869925362195  0.0000
  Ge     Ge        0.852175674574405    0.691736869198050    0.998575758786204  0.0000
  Ge     Ge        0.342651338337844    0.361023074652619    0.932192395674731  0.0000
  Ge     Ge        0.131895132472511    0.711170949441743    0.959523517198076  0.0000
  Ge     Ge        0.314492611244166    0.781165080048168    0.941765613534289  0.0000
  Ge     Ge        0.159768358733593    0.300478095067690    0.948190996118496  0.0000
  Ge     Ge        0.674826593439694    0.749335541665834    0.995809583497679  0.0000
  Ge     Ge        0.817961580906156    0.285765655427860    0.999422230783757  0.0000
  Si     Si        0.548004088569613    0.031755498256273    0.598561898534372  0.0000
  Si     Si        0.036907564473498    0.036509188927174    0.874059754226006  0.0000
  Si     Si        0.665923203434350    0.730711617502294    0.689023747205812  0.0000
  Si     Si        0.637874449389305    0.347470871416504    0.689385849595228  0.0000
  O1     O1        0.128114666380312    0.133616430014459    0.349334570868551  0.0000
  O1     O1        0.387069681958129    0.879304637910266    0.346544372532068  0.0000
  O1     O1        0.864334317093079    0.156651213042421    0.594738364256356  0.0000
  O2     O2        0.610072294892527    0.895133890165764    0.662155969646532  0.0000
  O1     O1        0.904031845684100    0.812323326769143    0.603838540346229  0.0000
  O2     O2        0.578252637706611    0.226846678101212    0.613329993717770  0.0000
  O1     O1        0.087650913651830    0.792982986359265    0.363248861712168  0.0000
  O1     O1        0.429087025040143    0.223227001916498    0.324648138867891  0.0000
  O1     O1        0.016356183272787    0.038461615154333    0.518883850486739  0.0000
  O3     O3        0.532535261441406    0.990007473620413    0.453536302349542  0.0000
  O1     O1        0.976318318192814    0.035958890751394    0.267150896646099  0.0000
  O1     O1        0.509217594649979    0.955359553607224    0.198284761270024  0.0000
  O3     O3        0.973470406873992    0.072721031982012    0.766038405846839  0.0000
  O3     O3        0.467891187179177    0.016634934785370    0.668036160492321  0.0000
  O1     O1        0.566622718066234    0.246805221699858    0.069755418992826  0.0000
  O1     O1        0.919829043893607    0.795522464218856    0.088490994977669  0.0000
  O1     O1        0.403153589529496    0.258342094175727    0.832217725661182  0.0000
  O3     O3        0.063844800356164    0.835404073360077    0.874159510034883  0.0000
  O1     O1        0.349453012335536    0.922396817967108    0.831972038844522  0.0000
  O3     O3        0.109846196479607    0.158210603592946    0.856137120443719  0.0000
  O1     O1        0.636420850376608    0.940699860922327    0.035530845710578  0.0000
  O1     O1        0.856509294451205    0.130512924556986    0.101296180640454  0.0000
  O1     O1        0.491814140602699    0.972219535303321    0.933329937383390  0.0000
  O3     O3        0.003861417070059    0.085925521470833    0.009662047583863  0.0000
  O1     O1        0.167005577209038    0.481529011907099    0.318457817799320  0.0000
  O1     O1        0.346923932755680    0.542224670450904    0.286933577092920  0.0000
  O1     O1        0.857077067527895    0.487532644806339    0.692926418302707  0.0000
  O2     O2        0.621230916042451    0.553333696968682    0.655140060162991  0.0000
  O1     O1        0.272907980828271    0.228148542881697    0.255581259722259  0.0000
  O1     O1        0.235673449713655    0.798599073519867    0.263191261278400  0.0000
  O3     O3        0.722011858252252    0.306883525329727    0.644377037614821  0.0000
  O3     O3        0.747058119111405    0.748653681289526    0.624041591378862  0.0000
  O1     O1        0.139098804662572    0.282901526488144    0.106169748473571  0.0000
  O1     O1        0.355064558526588    0.800686502701406    0.091889903003433  0.0000
  O1     O1        0.815035439771402    0.205693620150297    0.848517082243245  0.0000
  O3     O3        0.693313650524083    0.710160404595446    0.836284910258071  0.0000
  O1     O1        0.853461094467604    0.777107382437732    0.845162348075802  0.0000
  O3     O3        0.624320147739265    0.307607326949710    0.836783004498615  0.0000
  O1     O1        0.108524960841879    0.699755446392403    0.116722597210187  0.0000
  O1     O1        0.382578659761077    0.330874717724000    0.082935555641472  0.0000
  O1     O1        0.614450438070832    0.580479172803422    0.027588097018742  0.0000
  O1     O1        0.870324272386959    0.473207874773248    0.000091406342335  0.0000
  O1     O1        0.330659510322333    0.573401682297787    0.890893441982097  0.0000
  O1     O1        0.138653289132317    0.510735593374540    0.897061458079217  0.0000
  O1     O1        0.727144918500956    0.339327410247662    0.043980190721228  0.0000
  O1     O1        0.764458995863092    0.732269037031382    0.063500644541700  0.0000
  O1     O1        0.255514038037902    0.261418439748012    0.932560134462576  0.0000
  O1     O1        0.218231020759754    0.813131574807961    0.954972498878537  0.0000
