data_c00951.vasp
_audit_creation_method             Generated by GULP
_audit_author_name                 Salvador R. G. Balestra
_symmetry_space_group_name_H-M     'P 1             '
_symmetry_Int_Tables_number        1

loop_
_symmetry_equiv_pos_site_id
_symmetry_equiv_pos_as_xyz
_cell_length_a                       17.5349
_cell_length_b                        7.8404
_cell_length_c                       10.3447
_cell_angle_alpha                   87.8387
_cell_angle_beta                    91.7072
_cell_angle_gamma                   89.0330

loop_
_atom_site_label
_atom_site_type_symbol
_atom_site_fract_x
_atom_site_fract_y
_atom_site_fract_z
_atom_site_charge
  Ge     Ge        0.052090000000021    0.000000000000000    0.372269999999958  0.0000
  Ge     Ge        0.444748766739328    0.035545092400638    0.356092973335771  0.0000
  Ge     Ge        0.939678674105043    0.044310492367297    0.610645482391619  0.0000
  Ge     Ge        0.556603292582576    0.054424895684375    0.125890696710460  0.0000
  Ge     Ge        0.942517121048802    0.017646310484250    0.111979117762329  0.0000
  Ge     Ge        0.438378852506764    0.062904602744118    0.882610091243157  0.0000
  Ge     Ge        0.171598874145822    0.278400569814212    0.250794249058989  0.0000
  Ge     Ge        0.331455018630259    0.736470572125925    0.265510163841825  0.0000
  Ge     Ge        0.816551240895962    0.326651166322983    0.681575390014282  0.0000
  Ge     Ge        0.653606302274794    0.801952871559565    0.691548546956011  0.0000
  Ge     Ge        0.835847534929129    0.731336599221538    0.679814490552051  0.0000
  Ge     Ge        0.634155747865038    0.394651824126641    0.689907494970487  0.0000
  Ge     Ge        0.145687226350633    0.689600463308203    0.271078625691360  0.0000
  Ge     Ge        0.638525107416551    0.383093993611692    0.004184166947659  0.0000
  Ge     Ge        0.853908311805315    0.702756740931551    0.993914856760191  0.0000
  Ge     Ge        0.135825552689819    0.730667000313914    0.958805164883915  0.0000
  Ge     Ge        0.320893692613000    0.773709685233461    0.946710890504767  0.0000
  Ge     Ge        0.160537671425688    0.318428526333551    0.939956935295626  0.0000
  Ge     Ge        0.671270208228617    0.784330268732381    0.005109312032272  0.0000
  Ge     Ge        0.821375237411695    0.302833329613216    0.996399716760271  0.0000
  Si     Si        0.532915898848481    0.093775132499591    0.617974540198105  0.0000
  Si     Si        0.041198792205589    0.052876733451681    0.868519632146738  0.0000
  Si     Si        0.342325520524492    0.350263622357258    0.243125903562947  0.0000
  Si     Si        0.332375167452971    0.386454066715517    0.937618308223121  0.0000
  O1     O1        0.129820717186087    0.123068321116310    0.341526656261154  0.0000
  O1     O1        0.383911556050173    0.868930470131774    0.359891793048523  0.0000
  O1     O1        0.868938887702142    0.198172887712176    0.585823491853563  0.0000
  O3     O3        0.596831115748874    0.946463263958373    0.600221762770730  0.0000
  O1     O1        0.897620450649395    0.850881599670349    0.590409387633593  0.0000
  O3     O3        0.569774570851389    0.278402113731066    0.600072737595246  0.0000
  O1     O1        0.084498569267289    0.791552158026266    0.370182028089358  0.0000
  O3     O3        0.407840440647504    0.209261164909914    0.261634843569214  0.0000
  O1     O1        0.018255907571824    0.056859511817948    0.518760882584726  0.0000
  O3     O3        0.463085284399473    0.081260526185258    0.515780453502868  0.0000
  O1     O1        0.975247234138006    0.035318282466085    0.267492327392449  0.0000
  O1     O1        0.528493098266517    0.004106292339732    0.280072196034318  0.0000
  O3     O3        0.970484744863266    0.072045812718237    0.769429978075465  0.0000
  O3     O3        0.503178646881901    0.069359988356736    0.762765253678929  0.0000
  O1     O1        0.576181912901581    0.265902089683230    0.094776313760596  0.0000
  O1     O1        0.922491618201716    0.809118212961755    0.079029488856403  0.0000
  O3     O3        0.400972234972123    0.266291871087920    0.901345304821658  0.0000
  O3     O3        0.072854166735807    0.858385698699364    0.866151212697822  0.0000
  O1     O1        0.364983938914406    0.926866442681929    0.855700547953409  0.0000
  O3     O3        0.108258578274800    0.186669127835448    0.841285085332559  0.0000
  O1     O1        0.637193132538034    0.933986128570632    0.104129217217300  0.0000
  O1     O1        0.861651551089278    0.141679130583935    0.091591207701636  0.0000
  O1     O1        0.484942143454369    0.990475708406432    0.021706291059690  0.0000
  O3     O3        0.011177877005975    0.096237137879518    0.010035703366479  0.0000
  O1     O1        0.128985912446697    0.474972774495309    0.269170116601783  0.0000
  O3     O3        0.370369425156260    0.531213687918133    0.290545000176248  0.0000
  O1     O1        0.823476765929400    0.533620216882362    0.620343688538203  0.0000
  O1     O1        0.639938099399826    0.601094771871310    0.632310915676765  0.0000
  O3     O3        0.265848399629580    0.286162836903042    0.309814029199210  0.0000
  O1     O1        0.239295512001915    0.725137482160663    0.314132558164156  0.0000
  O1     O1        0.720347197423200    0.287370132998074    0.683122153833590  0.0000
  O1     O1        0.749592718825917    0.841068227104581    0.682247582710626  0.0000
  O1     O1        0.165920522160974    0.223634436102153    0.092066387685488  0.0000
  O1     O1        0.335549948886650    0.812892899480204    0.108407296787761  0.0000
  O1     O1        0.850019832552419    0.303045091079932    0.839155556289943  0.0000
  O1     O1        0.630656637560462    0.806840477879218    0.851420793014377  0.0000
  O1     O1        0.875314107659627    0.701797543114329    0.833454289011946  0.0000
  O1     O1        0.604859932186045    0.401798289564037    0.846521803874888  0.0000
  O1     O1        0.127489915783496    0.779241232438258    0.118190532458248  0.0000
  O2     O2        0.313639899948768    0.388471015421193    0.092307747664912  0.0000
  O1     O1        0.651326628163257    0.581125712236334    0.064169285327807  0.0000
  O1     O1        0.845437790152341    0.498894850554933    0.055815601914534  0.0000
  O3     O3        0.356706871075844    0.577466735445848    0.901798945723620  0.0000
  O1     O1        0.118444472140907    0.517688796840727    0.941617086382560  0.0000
  O1     O1        0.724827609289153    0.277150277060582    0.999726486448615  0.0000
  O1     O1        0.767505755869959    0.809341236925847    0.998092153834942  0.0000
  O3     O3        0.251151728222295    0.336022220038064    0.875185127255355  0.0000
  O1     O1        0.225678921484953    0.775726272245764    0.909203514126004  0.0000
