data_c00929.vasp
_audit_creation_method             Generated by GULP
_audit_author_name                 Salvador R. G. Balestra
_symmetry_space_group_name_H-M     'P 1             '
_symmetry_Int_Tables_number        1

loop_
_symmetry_equiv_pos_site_id
_symmetry_equiv_pos_as_xyz
_cell_length_a                       17.6811
_cell_length_b                        7.8142
_cell_length_c                       10.0181
_cell_angle_alpha                   89.1761
_cell_angle_beta                    89.5540
_cell_angle_gamma                   88.7999

loop_
_atom_site_label
_atom_site_type_symbol
_atom_site_fract_x
_atom_site_fract_y
_atom_site_fract_z
_atom_site_charge
  Ge     Ge        0.052090000000021    0.000000000000000    0.372269999999958  0.0000
  Ge     Ge        0.440183585669723    0.953918801562978    0.395984258264787  0.0000
  Ge     Ge        0.939554355600462    0.969177868246161    0.622335795381034  0.0000
  Ge     Ge        0.543536336793545    0.021137907514827    0.138016881977202  0.0000
  Ge     Ge        0.944971130270956    0.955367456320491    0.122429949080913  0.0000
  Ge     Ge        0.445250040104570    0.965557815300905    0.875620491588298  0.0000
  Ge     Ge        0.049731749961795    0.019117250681453    0.868312427453375  0.0000
  Ge     Ge        0.344586490159416    0.638222854540878    0.325858122601016  0.0000
  Ge     Ge        0.822155990409104    0.264443608621918    0.733880021031000  0.0000
  Ge     Ge        0.665836982336168    0.733521171668216    0.739272836420686  0.0000
  Ge     Ge        0.640134333595413    0.331846623896180    0.739790436837545  0.0000
  Ge     Ge        0.321211504124658    0.239984709268525    0.312680694991150  0.0000
  Ge     Ge        0.643238238752869    0.330102495514633    0.064926535786928  0.0000
  Ge     Ge        0.843433617273391    0.647520586596956    0.061750849615489  0.0000
  Ge     Ge        0.322496995132192    0.246266935771554    0.989218654712551  0.0000
  Ge     Ge        0.171851140179469    0.733631372769548    0.994651811131769  0.0000
  Ge     Ge        0.350841439836238    0.651921525549250    0.998677578428344  0.0000
  Ge     Ge        0.142582394198308    0.326082073996771    0.991444931861244  0.0000
  Ge     Ge        0.666923474964180    0.734985272853086    0.063449897758115  0.0000
  Ge     Ge        0.821073924989078    0.242609502135504    0.055906071792197  0.0000
  Si     Si        0.551213203818215    0.020633018969764    0.626653189116666  0.0000
  Si     Si        0.143889422985094    0.317676995870324    0.305064853002426  0.0000
  Si     Si        0.843028987749536    0.660246242961350    0.742426067275033  0.0000
  Si     Si        0.168047941542390    0.709578560302806    0.312186115488031  0.0000
  O3     O3        0.089934726307294    0.201678025138689    0.396866880064641  0.0000
  O1     O1        0.406061075529593    0.752636974564988    0.420075176352423  0.0000
  O1     O1        0.871425516019692    0.127037776030681    0.632780928320998  0.0000
  O3     O3        0.623457288866114    0.896340842418932    0.647039572752715  0.0000
  O3     O3        0.904852911054295    0.770191511362119    0.664198669710660  0.0000
  O3     O3        0.573542758971554    0.213987896864224    0.656722219033396  0.0000
  O3     O3        0.119335915112951    0.838005320298783    0.403142383859598  0.0000
  O1     O1        0.364465664580927    0.092810841661335    0.415302831373244  0.0000
  O1     O1        0.970633664584931    0.965683046622094    0.458465913864227  0.0000
  O3     O3        0.522532505757874    0.005628591549953    0.474906161050602  0.0000
  O1     O1        0.025050407253598    0.993870578221826    0.207422198393366  0.0000
  O1     O1        0.465676550862440    0.974737359970121    0.229056853405250  0.0000
  O1     O1        0.021846961123269    0.010835873984392    0.704723142814567  0.0000
  O3     O3        0.478070139016030    0.962711687532030    0.711755715772451  0.0000
  O1     O1        0.580264147919829    0.220590585959807    0.162212502769594  0.0000
  O1     O1        0.910688215604120    0.752431768049691    0.147459110967886  0.0000
  O1     O1        0.368385684437426    0.101864441548380    0.889121675120710  0.0000
  O1     O1        0.125551310962535    0.883589509088527    0.899890404960281  0.0000
  O1     O1        0.420109730532709    0.759498972172031    0.915314320600309  0.0000
  O1     O1        0.075720417116253    0.225486117244747    0.901792343642417  0.0000
  O1     O1        0.614578826525146    0.869270966459220    0.160775261566055  0.0000
  O1     O1        0.872680517449458    0.101622211912470    0.151203684993747  0.0000
  O1     O1        0.518329262860542    0.027926516563769    0.971489295910992  0.0000
  O1     O1        0.970513050446029    0.964118588507511    0.955837023719897  0.0000
  O2     O2        0.154950921858336    0.510660484512119    0.358440291717318  0.0000
  O1     O1        0.339379195022310    0.434195524748547    0.383940456068356  0.0000
  O3     O3        0.834024642134121    0.474465550347403    0.678130814338794  0.0000
  O1     O1        0.645619833655687    0.537206552623605    0.675209324175702  0.0000
  O3     O3        0.224663896731819    0.218651692413283    0.300378721123097  0.0000
  O3     O3        0.256652883323854    0.743676765339432    0.325012519846689  0.0000
  O1     O1        0.726663579877783    0.229198949518328    0.729748360382769  0.0000
  O3     O3        0.762711281294870    0.762493132858201    0.737857927013390  0.0000
  O3     O3        0.111435496585357    0.331042989208575    0.156521353904638  0.0000
  O1     O1        0.375739046161810    0.629413374262699    0.163509497391242  0.0000
  O1     O1        0.853995699383549    0.231872425164454    0.893499633109193  0.0000
  O1     O1        0.634884571564385    0.749293701557946    0.901136988705017  0.0000
  O3     O3        0.867846902001582    0.626677130455429    0.894184270065019  0.0000
  O1     O1        0.612894138673884    0.356057797652477    0.902456917040327  0.0000
  O3     O3        0.141816115347795    0.739069033313480    0.160077108681369  0.0000
  O1     O1        0.354626588790135    0.226213429313779    0.151157542669443  0.0000
  O1     O1        0.657533721137964    0.528581574219349    0.125518116414618  0.0000
  O1     O1        0.831627332106406    0.445087258325279    0.120517527958685  0.0000
  O1     O1        0.339257837329314    0.452490566621969    0.934493912296706  0.0000
  O1     O1        0.154330919392374    0.531973288390637    0.936197391146538  0.0000
  O1     O1        0.725853388292437    0.207518703381113    0.056905943860915  0.0000
  O1     O1        0.761907969696021    0.772607901852193    0.067144389504808  0.0000
  O1     O1        0.227077145556468    0.213917924419918    0.982977447412682  0.0000
  O1     O1        0.267044501043741    0.767964795033117    0.988589778406151  0.0000
