data_c00922.vasp
_audit_creation_method             Generated by GULP
_audit_author_name                 Salvador R. G. Balestra
_symmetry_space_group_name_H-M     'P 1             '
_symmetry_Int_Tables_number        1

loop_
_symmetry_equiv_pos_site_id
_symmetry_equiv_pos_as_xyz
_cell_length_a                       17.5938
_cell_length_b                        7.8332
_cell_length_c                       10.1132
_cell_angle_alpha                   91.5449
_cell_angle_beta                    90.7031
_cell_angle_gamma                   91.3091

loop_
_atom_site_label
_atom_site_type_symbol
_atom_site_fract_x
_atom_site_fract_y
_atom_site_fract_z
_atom_site_charge
  Ge     Ge        0.052090000000021    0.000000000000000    0.372269999999958  0.0000
  Ge     Ge        0.438678975071946    0.038545355414444    0.371968682714080  0.0000
  Ge     Ge        0.936509520814027    0.018346194847511    0.615208155648637  0.0000
  Ge     Ge        0.548455051502692    0.975113067703555    0.124533007650418  0.0000
  Ge     Ge        0.941040770625382    0.032724503521552    0.121818051455141  0.0000
  Ge     Ge        0.444937469498186    0.030004925153786    0.864691387351533  0.0000
  Ge     Ge        0.042641296069602    0.966797952307368    0.869058086774422  0.0000
  Ge     Ge        0.166324467274577    0.293842364695653    0.264590519511402  0.0000
  Ge     Ge        0.636378458796617    0.653966089763930    0.681369493727491  0.0000
  Ge     Ge        0.818857423206843    0.724023378968392    0.682614462451782  0.0000
  Ge     Ge        0.659653743224069    0.254117468785167    0.685474540378945  0.0000
  Ge     Ge        0.350985959590533    0.360458588012462    0.260939721499345  0.0000
  Ge     Ge        0.668573769193546    0.255815322075980    0.007422685953429  0.0000
  Ge     Ge        0.819934319487493    0.743527240896114    0.002346936525380  0.0000
  Ge     Ge        0.346156793755720    0.338964849138082    0.941724014520609  0.0000
  Ge     Ge        0.143853035278481    0.662451477163216    0.933873153638781  0.0000
  Ge     Ge        0.321427955928028    0.744898589095373    0.938764824434451  0.0000
  Ge     Ge        0.166142247761767    0.257056456312523    0.946571409086698  0.0000
  Ge     Ge        0.639100154340780    0.658048323087438    0.002552498387070  0.0000
  Ge     Ge        0.847903403701399    0.339136802113249    0.996027488623363  0.0000
  Si     Si        0.543047803547887    0.965058242445436    0.614333557801495  0.0000
  Si     Si        0.323622182802146    0.752787005237723    0.251565056095672  0.0000
  Si     Si        0.837611420878611    0.328740811488944    0.680673583913582  0.0000
  Si     Si        0.146209779730458    0.685139200811741    0.248639123881532  0.0000
  O1     O1        0.119761192869123    0.159088142255870    0.367996445874033  0.0000
  O3     O3        0.359534641355014    0.908983639520440    0.336957723066482  0.0000
  O3     O3        0.894781607664738    0.215130992085354    0.594981392002820  0.0000
  O3     O3        0.573418077062345    0.775283064239850    0.591168134571547  0.0000
  O1     O1        0.869958247241851    0.857336971395068    0.584043446640748  0.0000
  O3     O3        0.610961104986396    0.101728015453662    0.588777765425159  0.0000
  O3     O3        0.090837723567725    0.805889804956649    0.329292782187551  0.0000
  O1     O1        0.412782212302823    0.246373926335201    0.355494591263361  0.0000
  O1     O1        0.018928372725571    0.991055753233750    0.531812920974597  0.0000
  O3     O3        0.466841361765203    0.004439320392401    0.534673064714312  0.0000
  O1     O1        0.970650554785262    0.039706238125906    0.284418472252708  0.0000
  O1     O1        0.517515019026412    0.986963166079845    0.284618580329765  0.0000
  O1     O1        0.963686688079965    0.008765125761736    0.779879960329592  0.0000
  O3     O3        0.522433244798414    0.986929346960955    0.769897559185239  0.0000
  O1     O1        0.625935302450478    0.109142175500988    0.104958810879260  0.0000
  O1     O1        0.863982321560117    0.895564318077819    0.102055345006316  0.0000
  O1     O1        0.406562562684430    0.226873473688898    0.842127677011413  0.0000
  O1     O1        0.077801251444175    0.765052836681592    0.842398248724385  0.0000
  O1     O1        0.374431611892213    0.875461077314504    0.843420266142459  0.0000
  O1     O1        0.115261131170837    0.114814225358704    0.848981919420527  0.0000
  O1     O1        0.572919728729315    0.767637274549981    0.090257549470761  0.0000
  O1     O1        0.918375925341549    0.236209764963161    0.075404196418085  0.0000
  O1     O1        0.474157331704672    0.034893903833609    0.027599043218073  0.0000
  O1     O1        0.017346539941014    0.967447014556242    0.033372591158364  0.0000
  O3     O3        0.149090450273689    0.502675708677838    0.316061673526976  0.0000
  O3     O3        0.346395668734117    0.573482496641156    0.313375549497379  0.0000
  O3     O3        0.827523889294602    0.514532519777652    0.621913021375491  0.0000
  O1     O1        0.641265902320513    0.449513258062733    0.619001504473414  0.0000
  O1     O1        0.262358042593565    0.266137133830936    0.269953782499154  0.0000
  O2     O2        0.231928176565895    0.767597444529730    0.245048840555769  0.0000
  O3     O3        0.756966308801354    0.225695312915521    0.684010442684249  0.0000
  O1     O1        0.723132716548388    0.760105234914048    0.679886379378599  0.0000
  O1     O1        0.133049495273268    0.250936745595690    0.106534592367679  0.0000
  O3     O3        0.353818099860229    0.761876735472103    0.102305718569264  0.0000
  O3     O3        0.869032103290553    0.357766042972407    0.829859930823967  0.0000
  O1     O1        0.607471071859122    0.633436699592017    0.841411037911071  0.0000
  O1     O1        0.851955780124915    0.754533261344637    0.842321996032060  0.0000
  O1     O1        0.632904849603730    0.243207567396194    0.847690510897590  0.0000
  O3     O3        0.117442276202645    0.654591136224575    0.099171476635769  0.0000
  O1     O1        0.381721181310278    0.356500685909872    0.101315068184778  0.0000
  O1     O1        0.653027354274540    0.460983437093034    0.066407121196373  0.0000
  O1     O1        0.837825372304959    0.542156186568879    0.059030417545903  0.0000
  O1     O1        0.331969069285494    0.536664748031759    0.882691327824630  0.0000
  O1     O1        0.154945683067281    0.457432353551144    0.881331492359649  0.0000
  O1     O1        0.764461851037088    0.222728819755952    0.008482523495011  0.0000
  O1     O1        0.723724531816205    0.772776366727151    0.001683303204839  0.0000
  O1     O1        0.261802864420423    0.222193003027555    0.950190315149115  0.0000
  O1     O1        0.226728404448998    0.784174952592967    0.927454712182360  0.0000
