data_c00976.vasp
_audit_creation_method             Generated by GULP
_audit_author_name                 Salvador R. G. Balestra
_symmetry_space_group_name_H-M     'P 1             '
_symmetry_Int_Tables_number        1

loop_
_symmetry_equiv_pos_site_id
_symmetry_equiv_pos_as_xyz
_cell_length_a                       17.5034
_cell_length_b                        7.8418
_cell_length_c                       10.1617
_cell_angle_alpha                   89.1791
_cell_angle_beta                    90.1775
_cell_angle_gamma                   92.2359

loop_
_atom_site_label
_atom_site_type_symbol
_atom_site_fract_x
_atom_site_fract_y
_atom_site_fract_z
_atom_site_charge
  Ge     Ge        0.052090000000021    0.000000000000000    0.372269999999958  0.0000
  Ge     Ge        0.448073501613116    0.064602313680990    0.375556232900622  0.0000
  Ge     Ge        0.944024934677591    0.065640155673081    0.618373083534270  0.0000
  Ge     Ge        0.549218326336673    0.999738755315011    0.117729733971958  0.0000
  Ge     Ge        0.958054931953506    0.066875281753855    0.105615646824534  0.0000
  Ge     Ge        0.445547518647202    0.064073418031161    0.859815072723324  0.0000
  Ge     Ge        0.172729452291514    0.289297944663184    0.287019147382184  0.0000
  Ge     Ge        0.326402383701250    0.779886272267218    0.287270481814400  0.0000
  Ge     Ge        0.853899185534733    0.383237625969355    0.726936851409214  0.0000
  Ge     Ge        0.645320382706122    0.701734903442639    0.732155269826677  0.0000
  Ge     Ge        0.669453350632354    0.303978874258614    0.729242417955509  0.0000
  Ge     Ge        0.146033089245053    0.692102748123482    0.290058231725983  0.0000
  Ge     Ge        0.354323164388893    0.375821551409136    0.290213580588596  0.0000
  Ge     Ge        0.674761093245773    0.291258078385783    0.049074295727787  0.0000
  Ge     Ge        0.828604853644265    0.776912937611250    0.043354699109642  0.0000
  Ge     Ge        0.356615774861632    0.381967468416898    0.974055400359067  0.0000
  Ge     Ge        0.146961846129027    0.702164485268630    0.971957880269675  0.0000
  Ge     Ge        0.171347287557299    0.302377218542332    0.968350202222272  0.0000
  Ge     Ge        0.648228562822931    0.691313736003251    0.053350475182398  0.0000
  Ge     Ge        0.856596583495290    0.376470651795218    0.045681214578322  0.0000
  Si     Si        0.553170679097663    0.011251356402584    0.618603313673717  0.0000
  Si     Si        0.058056981572058    0.013649827266810    0.851884733736799  0.0000
  Si     Si        0.826087021275374    0.774146851013392    0.730233763221507  0.0000
  Si     Si        0.328789877385302    0.776505242532045    0.976053462632426  0.0000
  O1     O1        0.125545709141770    0.149991116584194    0.391957570183915  0.0000
  O1     O1        0.373970474487194    0.915482759213536    0.391472427008585  0.0000
  O1     O1        0.916632677298723    0.270862776786934    0.635310719218579  0.0000
  O3     O3        0.579899449593601    0.821507596135945    0.648753786039085  0.0000
  O3     O3        0.867770825958103    0.925761920782452    0.648249576460780  0.0000
  O3     O3        0.622938358330029    0.144604081627989    0.641898712933541  0.0000
  O1     O1        0.084228419561067    0.797326945841889    0.388666838623898  0.0000
  O1     O1        0.415186671041741    0.265665771982316    0.390857386371769  0.0000
  O1     O1        0.971674262696590    0.038438399379276    0.457725203462890  0.0000
  O3     O3        0.528134124903937    0.023326682031473    0.466211004324378  0.0000
  O1     O1        0.031375083179635    0.021915125051205    0.205311548433779  0.0000
  O1     O1        0.473658640948087    0.042294069097068    0.212284446758433  0.0000
  O3     O3        0.027367591857966    0.021089259859665    0.702915271236943  0.0000
  O3     O3        0.476784033988492    0.053562356146042    0.698194790393111  0.0000
  O1     O1        0.624814117775120    0.144322394656168    0.141933346371312  0.0000
  O1     O1        0.882254499659581    0.921920857412049    0.127987144176634  0.0000
  O1     O1        0.418101979555089    0.270326564867977    0.881020054766905  0.0000
  O3     O3        0.085225651454759    0.823328878533224    0.881906709885974  0.0000
  O3     O3        0.368032041618616    0.923730377957085    0.886118495332175  0.0000
  O3     O3        0.129148081666911    0.146377528944683    0.871518475440847  0.0000
  O1     O1        0.582884126492385    0.798223317790154    0.141775098847124  0.0000
  O1     O1        0.923173215263340    0.265844859844777    0.131652300895550  0.0000
  O1     O1        0.521757983405088    0.014413300729587    0.954546399534939  0.0000
  O3     O3        0.987036027356958    0.060676780816364    0.942297633600252  0.0000
  O1     O1        0.160182710000262    0.491671993675270    0.347554486455019  0.0000
  O1     O1        0.340275032949907    0.575001790300665    0.345800713684348  0.0000
  O3     O3        0.843538293097951    0.590796448786930    0.668868403867418  0.0000
  O1     O1        0.648966747068183    0.502342304471058    0.666068895896823  0.0000
  O1     O1        0.268898815060060    0.257954125390091    0.282539854633560  0.0000
  O1     O1        0.230777029215425    0.813481718373969    0.287386342042871  0.0000
  O1     O1        0.765867695038467    0.278772096070160    0.721247151473507  0.0000
  O3     O3        0.735610877384125    0.801018243388389    0.728563042841877  0.0000
  O1     O1        0.138453669561436    0.282215670623172    0.127220086562096  0.0000
  O3     O3        0.359797521115176    0.791149404146667    0.125497099027177  0.0000
  O1     O1        0.886946333169716    0.389684406960517    0.884546995906783  0.0000
  O1     O1        0.617683566180260    0.676982774248745    0.892204165984344  0.0000
  O3     O3        0.856495356857572    0.777245627304112    0.879407891134714  0.0000
  O1     O1        0.640354346209365    0.289676190743898    0.889721636365194  0.0000
  O1     O1        0.113551249409413    0.681551464289075    0.129813189295003  0.0000
  O1     O1        0.390272278189460    0.385401397860220    0.132512934799170  0.0000
  O1     O1        0.661870140851687    0.491539868327849    0.113628527944762  0.0000
  O1     O1        0.844365761656069    0.574630082184195    0.106021332842188  0.0000
  O3     O3        0.347954839025354    0.591482095875291    0.919923468207772  0.0000
  O1     O1        0.150837778486206    0.502040540043064    0.907661166324868  0.0000
  O1     O1        0.770822177485318    0.259441600300474    0.046115931040811  0.0000
  O1     O1        0.733276059806931    0.811514933108757    0.053404474413030  0.0000
  O1     O1        0.268022740533538    0.280660231716609    0.968674143552452  0.0000
  O3     O3        0.237892123775737    0.797007292587540    0.977441635762875  0.0000
