data_c00961.vasp
_audit_creation_method             Generated by GULP
_audit_author_name                 Salvador R. G. Balestra
_symmetry_space_group_name_H-M     'P 1             '
_symmetry_Int_Tables_number        1

loop_
_symmetry_equiv_pos_site_id
_symmetry_equiv_pos_as_xyz
_cell_length_a                       17.7343
_cell_length_b                        7.8416
_cell_length_c                       10.3750
_cell_angle_alpha                   90.5127
_cell_angle_beta                    90.8798
_cell_angle_gamma                   89.9798

loop_
_atom_site_label
_atom_site_type_symbol
_atom_site_fract_x
_atom_site_fract_y
_atom_site_fract_z
_atom_site_charge
  Ge     Ge        0.052090000000021    0.000000000000000    0.372269999999958  0.0000
  Ge     Ge        0.447221515916113    0.035391037838568    0.369594043277074  0.0000
  Ge     Ge        0.946225674894333    0.980231291363667    0.623298568534162  0.0000
  Ge     Ge        0.553740169044757    0.006698117043955    0.119125090673085  0.0000
  Ge     Ge        0.939973250571490    0.975135066241162    0.127264756575782  0.0000
  Ge     Ge        0.443281092887391    0.003105462489001    0.870488553576153  0.0000
  Ge     Ge        0.165544040283244    0.293824167615325    0.266887469715603  0.0000
  Ge     Ge        0.325521167092989    0.748491348860575    0.250469163223736  0.0000
  Ge     Ge        0.824174297372066    0.263241932470870    0.690612520356971  0.0000
  Ge     Ge        0.660969599913740    0.726365866186829    0.700099038676116  0.0000
  Ge     Ge        0.842387943142163    0.670787699317196    0.700865088500738  0.0000
  Ge     Ge        0.644489972842312    0.318313702798285    0.691376636414574  0.0000
  Ge     Ge        0.346973136711899    0.342989779188730    0.267179020478499  0.0000
  Ge     Ge        0.847868767208925    0.657064023517443    0.014493709237597  0.0000
  Ge     Ge        0.341094244396385    0.317671986532943    0.952707300946935  0.0000
  Ge     Ge        0.141883392375719    0.675549151851181    0.945302376124597  0.0000
  Ge     Ge        0.321499689981040    0.724299817163685    0.935786030796187  0.0000
  Ge     Ge        0.159300708657047    0.268253566095864    0.955517452661688  0.0000
  Ge     Ge        0.666446775937000    0.713869839580909    0.010806362571020  0.0000
  Ge     Ge        0.822023726643652    0.252851689382632    0.004118159958248  0.0000
  Si     Si        0.545487897042740    0.007612884248116    0.622075075098864  0.0000
  Si     Si        0.042417803118211    0.987340307512935    0.881678330440643  0.0000
  Si     Si        0.149345255359893    0.692542533336466    0.253156716480937  0.0000
  Si     Si        0.645561699876765    0.315608515937223    0.998140597569249  0.0000
  O1     O1        0.114340379722440    0.165581977310612    0.365416716573303  0.0000
  O1     O1        0.372178603942712    0.904457616658394    0.332894690147459  0.0000
  O1     O1        0.878527781593963    0.133893581884016    0.596611688160773  0.0000
  O3     O3        0.610445918122017    0.866391545777044    0.604000515735339  0.0000
  O1     O1        0.903181643567937    0.785526184622392    0.608953346669022  0.0000
  O3     O3        0.579912305971130    0.196149286362877    0.604987621299441  0.0000
  O3     O3        0.090750560327876    0.805017460617860    0.331935030365489  0.0000
  O1     O1        0.412510129857920    0.238630534981957    0.360078218758982  0.0000
  O1     O1        0.023278491479163    0.994094374111346    0.529503121882184  0.0000
  O3     O3        0.475530702881173    0.985083963502901    0.525592767619108  0.0000
  O1     O1        0.971670157932927    0.022964291347075    0.279771641370133  0.0000
  O1     O1        0.524507376506999    0.009143776742159    0.275746659336580  0.0000
  O3     O3        0.974335294784636    0.012964456069873    0.783300537566398  0.0000
  O3     O3        0.517521956011707    0.984949980039591    0.768037237228535  0.0000
  O3     O3        0.586292517233892    0.206762696312314    0.077046587961576  0.0000
  O1     O1        0.911678520839854    0.767036868585216    0.108652946908971  0.0000
  O1     O1        0.401993352621627    0.200371523868550    0.861932060956284  0.0000
  O3     O3        0.074675969524673    0.795602817088767    0.865802397560637  0.0000
  O1     O1        0.373699901716518    0.853600106856810    0.841058899279006  0.0000
  O3     O3        0.109679900368377    0.122491659577732    0.862228568579759  0.0000
  O1     O1        0.620822447900223    0.850110128732105    0.111928282354857  0.0000
  O1     O1        0.861964189696981    0.098915845547645    0.096232466759139  0.0000
  O1     O1        0.476953618442278    0.962329973934981    0.023395273266696  0.0000
  O3     O3        0.013537415553880    0.021160819709301    0.026123965942880  0.0000
  O3     O3        0.158219132149646    0.506683135739092    0.314880207300629  0.0000
  O1     O1        0.342639608597263    0.551556598784298    0.316267932809998  0.0000
  O1     O1        0.832303203206897    0.470019948839328    0.638561668516943  0.0000
  O1     O1        0.648582058231252    0.522917633877308    0.637429234609066  0.0000
  O1     O1        0.259676578844820    0.247447566284787    0.275774131367692  0.0000
  O3     O3        0.229318877241400    0.789444347247102    0.252589412498995  0.0000
  O1     O1        0.729607776293940    0.215887001462917    0.681095053069054  0.0000
  O1     O1        0.755604471002961    0.771237454728098    0.701361794830083  0.0000
  O1     O1        0.131088120740391    0.265427401791008    0.113303450267759  0.0000
  O1     O1        0.352747986394231    0.742061519158929    0.093258819239610  0.0000
  O1     O1        0.853450680906035    0.247664663300012    0.848895119083366  0.0000
  O1     O1        0.631393338573250    0.737844962940990    0.857005511843752  0.0000
  O1     O1        0.876300778788051    0.658805619992012    0.856602475427134  0.0000
  O3     O3        0.617073757011703    0.333449280308134    0.850934698568932  0.0000
  O3     O3        0.119404454304073    0.668762803932855    0.107166438454451  0.0000
  O1     O1        0.374777873246720    0.329129746953707    0.108810882500278  0.0000
  O3     O3        0.654559140392889    0.503274998049887    0.059159838663566  0.0000
  O1     O1        0.841806222415009    0.451631324392552    0.067667750275212  0.0000
  O1     O1        0.330804064614379    0.515242648107283    0.887346847334100  0.0000
  O1     O1        0.144388324910731    0.469041497632802    0.892025217220662  0.0000
  O3     O3        0.725491561695425    0.218675353745836    0.998722071496495  0.0000
  O1     O1        0.760956230240691    0.754600627972616    0.016551746057365  0.0000
  O1     O1        0.253586050071362    0.221447586135661    0.955290288324093  0.0000
  O1     O1        0.227301470523468    0.773436025453171    0.927619214470539  0.0000
