data_c00968.vasp
_audit_creation_method             Generated by GULP
_audit_author_name                 Salvador R. G. Balestra
_symmetry_space_group_name_H-M     'P 1             '
_symmetry_Int_Tables_number        1

loop_
_symmetry_equiv_pos_site_id
_symmetry_equiv_pos_as_xyz
_cell_length_a                       17.7478
_cell_length_b                        7.8112
_cell_length_c                       10.3796
_cell_angle_alpha                   91.4788
_cell_angle_beta                    90.9502
_cell_angle_gamma                   90.0462

loop_
_atom_site_label
_atom_site_type_symbol
_atom_site_fract_x
_atom_site_fract_y
_atom_site_fract_z
_atom_site_charge
  Ge     Ge        0.052090000000021    0.000000000000000    0.372269999999958  0.0000
  Ge     Ge        0.448954482209604    0.034174548939423    0.372708296924022  0.0000
  Ge     Ge        0.943135330089828    0.974952800813807    0.617333952025908  0.0000
  Ge     Ge        0.547088707662940    0.028420799902627    0.111688530380464  0.0000
  Ge     Ge        0.953296735494467    0.007472397726494    0.107262551342434  0.0000
  Ge     Ge        0.438080843166468    0.015056996013328    0.857807693766989  0.0000
  Ge     Ge        0.171094191824359    0.275397259141146    0.289014969113873  0.0000
  Ge     Ge        0.328054569342749    0.755168763428353    0.282526596408661  0.0000
  Ge     Ge        0.823330288984359    0.264065248314836    0.731744679179175  0.0000
  Ge     Ge        0.660442822120858    0.716691293642177    0.725246557473225  0.0000
  Ge     Ge        0.842361891676469    0.668094876848023    0.713250927281059  0.0000
  Ge     Ge        0.149475017509337    0.684545621505650    0.287391618109474  0.0000
  Ge     Ge        0.349088747459389    0.340198844249382    0.282262480152033  0.0000
  Ge     Ge        0.648468000434911    0.343320952962553    0.047233157043839  0.0000
  Ge     Ge        0.849719282395361    0.690103420100541    0.029856427255814  0.0000
  Ge     Ge        0.142376307200145    0.675271718122008    0.974139300335560  0.0000
  Ge     Ge        0.324475264489267    0.731926505489795    0.972073749717770  0.0000
  Ge     Ge        0.166600486354334    0.269514146392496    0.975881249096731  0.0000
  Ge     Ge        0.670806069586353    0.750008703411492    0.038563103412872  0.0000
  Ge     Ge        0.826702210314253    0.283252692120491    0.045429446470456  0.0000
  Si     Si        0.548246533938684    0.009975734137629    0.624630708064137  0.0000
  Si     Si        0.053101309667265    0.987828245366863    0.860642272502022  0.0000
  Si     Si        0.646103268017901    0.317869844592862    0.739620880681741  0.0000
  Si     Si        0.344826061074447    0.326713670069699    0.977204605132065  0.0000
  O1     O1        0.122761862539713    0.149848044244061    0.391983006031160  0.0000
  O1     O1        0.377401096932948    0.887451354451291    0.387117110690762  0.0000
  O1     O1        0.867781177630467    0.105486621791548    0.647880835297807  0.0000
  O3     O3        0.603218087183333    0.848797600802862    0.635988952247594  0.0000
  O1     O1        0.907083125253616    0.772428077032256    0.622532907140435  0.0000
  O2     O2        0.587713804887265    0.188658051205045    0.667872191733544  0.0000
  O1     O1        0.088821884008647    0.798106000090915    0.384035005483860  0.0000
  O1     O1        0.413675366830140    0.238122782725847    0.377048176225930  0.0000
  O1     O1        0.975621397771259    0.022656237637922    0.467566496507740  0.0000
  O3     O3        0.525002173966455    0.016615156703982    0.474913983653935  0.0000
  O1     O1        0.025004586997865    0.033495205481982    0.214238782291538  0.0000
  O1     O1        0.479385502842547    0.988851600637478    0.218660370187614  0.0000
  O3     O3        0.022426478676826    0.002479854228665    0.715355457469140  0.0000
  O3     O3        0.470942234019013    0.994870951841685    0.701793737311435  0.0000
  O1     O1        0.580900343312455    0.235210039462492    0.126927336671779  0.0000
  O1     O1        0.916325756727439    0.804979704221305    0.115089348474211  0.0000
  O3     O3        0.399859432666924    0.216197536077138    0.887598543264824  0.0000
  O3     O3        0.077057505513035    0.793183565150324    0.888938256833018  0.0000
  O1     O1        0.370045264936801    0.859921534295504    0.868495596413663  0.0000
  O3     O3        0.125363134430633    0.110565869013482    0.880901900146750  0.0000
  O1     O1        0.623608536622041    0.894626244170030    0.130815456837841  0.0000
  O1     O1        0.881680003603490    0.151769034744818    0.135108980709385  0.0000
  O1     O1        0.512742390107357    0.982318242361904    0.958609469038236  0.0000
  O3     O3        0.986126299181324    0.046255027940061    0.953792432632084  0.0000
  O1     O1        0.162546765577619    0.484905313614647    0.344493775600508  0.0000
  O1     O1        0.338896142617225    0.546967110430935    0.332209550187782  0.0000
  O1     O1        0.838126499641141    0.457967555539908    0.662333252229767  0.0000
  O3     O3        0.648504548728328    0.502433825461226    0.675158007083554  0.0000
  O1     O1        0.265509712624349    0.228978238178958    0.289191747195955  0.0000
  O1     O1        0.233200133997556    0.796802240021505    0.282831973914903  0.0000
  O3     O3        0.727164353455283    0.227128295377443    0.735826671292408  0.0000
  O1     O1        0.754136197494430    0.760098315473017    0.704291016419722  0.0000
  O1     O1        0.137418786897245    0.261396239497443    0.132006896066381  0.0000
  O1     O1        0.358291968021145    0.768917913665247    0.125990415750536  0.0000
  O1     O1        0.855145482945258    0.268518882484377    0.887762054527752  0.0000
  O1     O1        0.636306018253657    0.744775764600569    0.882126013459110  0.0000
  O1     O1        0.874396554626075    0.677280747287820    0.870472504048294  0.0000
  O3     O3        0.620907491637523    0.347125659986468    0.885764163504462  0.0000
  O1     O1        0.114357312407994    0.671527510705207    0.131496355129766  0.0000
  O3     O3        0.378397897720130    0.331392705092958    0.122605222117262  0.0000
  O1     O1        0.659333562705713    0.548827242176416    0.102043590474473  0.0000
  O1     O1        0.839404699708088    0.493856029951062    0.095240244453060  0.0000
  O3     O3        0.336788799457891    0.517742154656673    0.926795731988973  0.0000
  O1     O1        0.145449786719639    0.467480264137428    0.915942993844605  0.0000
  O1     O1        0.732999453056012    0.235678951350150    0.057523955560802  0.0000
  O1     O1        0.764831522479887    0.797185409296844    0.033769751628573  0.0000
  O3     O3        0.262958991483125    0.237389493339727    0.977925456177811  0.0000
  O1     O1        0.229404057942750    0.769439084675456    0.967615611570999  0.0000
