data_c00918.vasp
_audit_creation_method             Generated by GULP
_audit_author_name                 Salvador R. G. Balestra
_symmetry_space_group_name_H-M     'P 1             '
_symmetry_Int_Tables_number        1

loop_
_symmetry_equiv_pos_site_id
_symmetry_equiv_pos_as_xyz
_cell_length_a                       17.6503
_cell_length_b                        7.8617
_cell_length_c                       10.0138
_cell_angle_alpha                   91.5789
_cell_angle_beta                    91.2538
_cell_angle_gamma                   91.7208

loop_
_atom_site_label
_atom_site_type_symbol
_atom_site_fract_x
_atom_site_fract_y
_atom_site_fract_z
_atom_site_charge
  Ge     Ge        0.052090000000021    0.000000000000000    0.372269999999958  0.0000
  Ge     Ge        0.440733647314761    0.052640718392217    0.388061512780867  0.0000
  Ge     Ge        0.935366285396335    0.026009196242576    0.611262496021828  0.0000
  Ge     Ge        0.546816556340572    0.002727855314513    0.134805177661975  0.0000
  Ge     Ge        0.948188466579125    0.062711127852742    0.117215525610432  0.0000
  Ge     Ge        0.442532478253713    0.051720812150288    0.873243086894111  0.0000
  Ge     Ge        0.048282025900625    0.993604006029917    0.863097861246694  0.0000
  Ge     Ge        0.166498259690729    0.298357384761093    0.306138808799548  0.0000
  Ge     Ge        0.838366862435199    0.340945907205284    0.732902016297853  0.0000
  Ge     Ge        0.634546417261294    0.672625270175478    0.740872205618156  0.0000
  Ge     Ge        0.818042173073776    0.739355237125289    0.725645676497674  0.0000
  Ge     Ge        0.349773627392526    0.370167926067920    0.312329670862276  0.0000
  Ge     Ge        0.669362522330547    0.291169797945059    0.065894391973117  0.0000
  Ge     Ge        0.823656096455297    0.770066093443684    0.047499279434387  0.0000
  Ge     Ge        0.350516464526603    0.364749868532472    0.990317730513865  0.0000
  Ge     Ge        0.141533964799117    0.688566782132295    0.992417338644803  0.0000
  Ge     Ge        0.321038569507096    0.768214912164473    0.994267023425992  0.0000
  Ge     Ge        0.168275409332235    0.285456018693201    0.983691746294654  0.0000
  Ge     Ge        0.643276329948727    0.690706407147830    0.060977313282550  0.0000
  Ge     Ge        0.847387507678657    0.369293018363825    0.062117974978344  0.0000
  Si     Si        0.546079302149549    0.985400518550463    0.630792413533009  0.0000
  Si     Si        0.324616156903238    0.760534853371475    0.311973354610419  0.0000
  Si     Si        0.659840032015280    0.279687671522287    0.745131424153254  0.0000
  Si     Si        0.149057829773492    0.689015675075758    0.310687236735899  0.0000
  O1     O1        0.117798165116989    0.162321201310772    0.405952016267985  0.0000
  O3     O3        0.366394616678258    0.904550565445216    0.404324540206610  0.0000
  O1     O1        0.901957196012515    0.224287586112931    0.647177225358181  0.0000
  O3     O3        0.572841455565702    0.794469463932680    0.648865062837432  0.0000
  O1     O1        0.862048407576564    0.881609121001465    0.624416648173912  0.0000
  O2     O2        0.612273181810409    0.123885394606227    0.672756424460632  0.0000
  O3     O3        0.095404723988954    0.807566657401153    0.396869224585570  0.0000
  O1     O1        0.407009490843685    0.252347061877509    0.413314169314549  0.0000
  O1     O1        0.968099064470099    0.021063589447274    0.449846380310768  0.0000
  O3     O3        0.522175061620052    0.008293768664636    0.476471518627234  0.0000
  O1     O1        0.027407187028292    0.013891090983534    0.204782330890784  0.0000
  O1     O1        0.468757128032045    0.041396002091985    0.224051784378615  0.0000
  O1     O1        0.016709560384593    0.981565035358952    0.699552241708548  0.0000
  O3     O3        0.469126415386055    0.022771307536519    0.708480260594220  0.0000
  O1     O1        0.617903173947851    0.156382752355138    0.159954584605686  0.0000
  O1     O1        0.874293902354335    0.919296962867268    0.140461891100417  0.0000
  O1     O1        0.414490446469523    0.257753595652072    0.896406202694313  0.0000
  O1     O1        0.072048791948617    0.792486374075223    0.910853876889514  0.0000
  O1     O1        0.366277426267234    0.919269403129295    0.905392858803118  0.0000
  O1     O1        0.124458298606714    0.133891753229441    0.880888926900431  0.0000
  O1     O1        0.584520609087073    0.806806015170857    0.159156147457181  0.0000
  O1     O1        0.915343253031949    0.264187555719664    0.148471770886139  0.0000
  O1     O1        0.519971120943729    0.006512769476193    0.968095147312068  0.0000
  O1     O1        0.972151312463162    0.060200640566468    0.950936650197990  0.0000
  O3     O3        0.152743119480033    0.503710702868442    0.370158850008439  0.0000
  O3     O3        0.344016802154670    0.577916739920778    0.370826259765133  0.0000
  O1     O1        0.832650350552161    0.537367888838931    0.664295456205592  0.0000
  O3     O3        0.640366075914804    0.461447968675737    0.682980372705310  0.0000
  O1     O1        0.261973422733379    0.268911659008764    0.308160167945373  0.0000
  O2     O2        0.233393880108283    0.778788333631462    0.307454189743513  0.0000
  O3     O3        0.748310027777936    0.243279807708322    0.730379590428125  0.0000
  O1     O1        0.722392456211652    0.768237444069366    0.731333503917586  0.0000
  O1     O1        0.134358778781200    0.271255029362404    0.143279108297532  0.0000
  O3     O3        0.352426616113999    0.773883578191373    0.160485982984871  0.0000
  O1     O1        0.868301288267379    0.374279482322714    0.894907283906650  0.0000
  O1     O1        0.604461534063041    0.669589860278498    0.901223369345305  0.0000
  O1     O1        0.854954613601433    0.770628801101086    0.885281307740343  0.0000
  O3     O3        0.638369282760104    0.287950187808637    0.899859842264732  0.0000
  O3     O3        0.118106329355467    0.669877156786014    0.158894059833161  0.0000
  O1     O1        0.383762437944619    0.372473816298195    0.153493009298603  0.0000
  O1     O1        0.657534579885028    0.496698969951267    0.126011286847485  0.0000
  O1     O1        0.837854655895177    0.573754470045430    0.117054756537711  0.0000
  O1     O1        0.339292271466298    0.566500921365118    0.934003652204824  0.0000
  O1     O1        0.150686338820077    0.486661501672486    0.927778805064789  0.0000
  O1     O1        0.763602781115033    0.251344195232063    0.073722552104523  0.0000
  O1     O1        0.728252965534449    0.802857062846238    0.046006821567973  0.0000
  O1     O1        0.264034967034589    0.257503594765428    0.986684497268415  0.0000
  O1     O1        0.225869470640454    0.801882424326347    0.982292840786265  0.0000
