data_c00947.vasp
_audit_creation_method             Generated by GULP
_audit_author_name                 Salvador R. G. Balestra
_symmetry_space_group_name_H-M     'P 1             '
_symmetry_Int_Tables_number        1

loop_
_symmetry_equiv_pos_site_id
_symmetry_equiv_pos_as_xyz
_cell_length_a                       17.6932
_cell_length_b                        7.8818
_cell_length_c                       10.3472
_cell_angle_alpha                   89.1111
_cell_angle_beta                    90.7714
_cell_angle_gamma                   89.5250

loop_
_atom_site_label
_atom_site_type_symbol
_atom_site_fract_x
_atom_site_fract_y
_atom_site_fract_z
_atom_site_charge
  Ge     Ge        0.052090000000021    0.000000000000000    0.372269999999958  0.0000
  Ge     Ge        0.445125115894808    0.023508874957479    0.357128758361075  0.0000
  Ge     Ge        0.943952746211442    0.020179911703718    0.618995137107511  0.0000
  Ge     Ge        0.552059647510450    0.035551699854804    0.112521886550465  0.0000
  Ge     Ge        0.939552883797829    0.010990068482997    0.121837492318043  0.0000
  Ge     Ge        0.441505956738614    0.039920386009876    0.861071178906002  0.0000
  Ge     Ge        0.169221230593682    0.286216429424047    0.252823009423528  0.0000
  Ge     Ge        0.329787049609191    0.732826637637663    0.251726506537896  0.0000
  Ge     Ge        0.823303427412447    0.304886159354766    0.690434087344129  0.0000
  Ge     Ge        0.659271026249403    0.758197317310975    0.687855177153113  0.0000
  Ge     Ge        0.840505102575859    0.709760783839817    0.687652448821786  0.0000
  Ge     Ge        0.640440208693627    0.352399798379160    0.690816828712742  0.0000
  Ge     Ge        0.147571797669560    0.687926077777317    0.264554621382376  0.0000
  Ge     Ge        0.640745950172577    0.359208005382531    0.001204365860198  0.0000
  Ge     Ge        0.843450714612543    0.701287775860096    0.002752298639011  0.0000
  Ge     Ge        0.338199020882344    0.351843160122137    0.929676934346904  0.0000
  Ge     Ge        0.140850727288803    0.711943998560432    0.950751880899237  0.0000
  Ge     Ge        0.323014361491957    0.757286897303783    0.940280685449769  0.0000
  Ge     Ge        0.157743425807855    0.306974759548634    0.937929858524772  0.0000
  Ge     Ge        0.823412400608194    0.300189247327008    0.002709603545732  0.0000
  Si     Si        0.543844809080596    0.045135882116619    0.612569426447109  0.0000
  Si     Si        0.041783215487452    0.025647324814763    0.875203690734598  0.0000
  Si     Si        0.346024716310585    0.334356913516059    0.238539792824528  0.0000
  Si     Si        0.664557784605226    0.754286895490765    0.995521977988580  0.0000
  O1     O1        0.126503202761272    0.131713938517869    0.340603321186294  0.0000
  O1     O1        0.381812139805199    0.861438497057776    0.349735212540073  0.0000
  O1     O1        0.874987956615792    0.172872524211465    0.595513189999932  0.0000
  O3     O3        0.606587746487340    0.898598020088791    0.593474721427114  0.0000
  O1     O1        0.902717743119639    0.826334174040309    0.597981862481140  0.0000
  O3     O3        0.581601071472382    0.228634253636468    0.596529226145945  0.0000
  O1     O1        0.085740765642632    0.796739573373126    0.359188859766871  0.0000
  O3     O3        0.407198574927474    0.219293409224202    0.313765700726810  0.0000
  O1     O1        0.021802613941303    0.040123101978278    0.526099159554401  0.0000
  O3     O3        0.472618164393764    0.030031963653768    0.518393217747456  0.0000
  O1     O1        0.973482070194976    0.032905439478076    0.276077807869115  0.0000
  O1     O1        0.524262349381060    0.992504112176706    0.267527438310693  0.0000
  O3     O3        0.970879248904913    0.042359424788351    0.780435309493881  0.0000
  O3     O3        0.515957706079111    0.016739404516369    0.759409147103573  0.0000
  O1     O1        0.582883066392200    0.241524866236310    0.097269082669957  0.0000
  O1     O1        0.904843155861963    0.811403680753998    0.097201933403003  0.0000
  O1     O1        0.401789940394510    0.239019974384987    0.843015224197631  0.0000
  O3     O3        0.079823016323463    0.840587547543043    0.861135509582822  0.0000
  O1     O1        0.370359390567384    0.894137195409245    0.842024702471656  0.0000
  O3     O3        0.103397895551641    0.171047034622050    0.847522639991509  0.0000
  O3     O3        0.624834003684569    0.896163071269219    0.079067068564232  0.0000
  O1     O1        0.866695795321133    0.152328210356317    0.100338667853447  0.0000
  O1     O1        0.474481804390963    0.005836562267129    0.016019541705798  0.0000
  O3     O3        0.014955868005881    0.051440771692191    0.021941779033960  0.0000
  O1     O1        0.154378141444863    0.482131339324902    0.319173159727855  0.0000
  O3     O3        0.340255299037573    0.520495878647194    0.298711411475738  0.0000
  O1     O1        0.832415474658371    0.508947875072951    0.630813473086228  0.0000
  O1     O1        0.645576153428107    0.555799570246226    0.631601013290497  0.0000
  O3     O3        0.265116854434075    0.242335797239195    0.246054670019068  0.0000
  O1     O1        0.235448301547202    0.779683150052317    0.264031893629197  0.0000
  O1     O1        0.728680373730659    0.258993697077902    0.691649394689875  0.0000
  O1     O1        0.752884814447000    0.807846836192423    0.679646414283417  0.0000
  O1     O1        0.133913353357159    0.296318682115658    0.098040853984812  0.0000
  O1     O1        0.358937250963017    0.761915044289775    0.095969671953350  0.0000
  O1     O1        0.856329622190383    0.293736772303327    0.847581579380102  0.0000
  O3     O3        0.632969704318958    0.757487150351503    0.848827104116693  0.0000
  O1     O1        0.872808114627384    0.702899349319352    0.845395465914720  0.0000
  O1     O1        0.605863507009828    0.355458072812159    0.845328362406538  0.0000
  O1     O1        0.112099095693702    0.697170136393306    0.108376882939321  0.0000
  O3     O3        0.369220808262058    0.354040038753145    0.089678927353757  0.0000
  O3     O3        0.648862546151306    0.566205057887849    0.053612738597357  0.0000
  O1     O1        0.840487939723876    0.498905361273415    0.062747132276808  0.0000
  O1     O1        0.331259622181129    0.556895776782810    0.876908909323976  0.0000
  O1     O1        0.144089905595150    0.513868584554375    0.885297657697256  0.0000
  O1     O1        0.728296496029647    0.265508327977510    0.999551045629340  0.0000
  O3     O3        0.753558171414597    0.790717135497405    0.996929053825871  0.0000
  O1     O1        0.251413322171066    0.255805609186894    0.922071458778651  0.0000
  O1     O1        0.228478514761942    0.804100910076772    0.949899571761458  0.0000
