data_c00914.vasp
_audit_creation_method             Generated by GULP
_audit_author_name                 Salvador R. G. Balestra
_symmetry_space_group_name_H-M     'P 1             '
_symmetry_Int_Tables_number        1

loop_
_symmetry_equiv_pos_site_id
_symmetry_equiv_pos_as_xyz
_cell_length_a                       17.5445
_cell_length_b                        7.8384
_cell_length_c                       10.1989
_cell_angle_alpha                   91.8024
_cell_angle_beta                    90.0025
_cell_angle_gamma                   88.5916

loop_
_atom_site_label
_atom_site_type_symbol
_atom_site_fract_x
_atom_site_fract_y
_atom_site_fract_z
_atom_site_charge
  Ge     Ge        0.052090000000021    0.000000000000000    0.372269999999958  0.0000
  Ge     Ge        0.439663823907537    0.961135957389088    0.384347130621007  0.0000
  Ge     Ge        0.945032502748935    0.933174774319823    0.618533480916778  0.0000
  Ge     Ge        0.553541342647561    0.007877774170888    0.140036550247409  0.0000
  Ge     Ge        0.940126995437894    0.949048791049163    0.127930647119555  0.0000
  Ge     Ge        0.451087438495272    0.930209156999041    0.881075639601384  0.0000
  Ge     Ge        0.046595142318548    0.992382513977596    0.876832230435083  0.0000
  Ge     Ge        0.140079233078171    0.322397075308319    0.264475801310556  0.0000
  Ge     Ge        0.822802814465232    0.221925805997809    0.697713226250640  0.0000
  Ge     Ge        0.663712854202055    0.703911672527536    0.699951835543442  0.0000
  Ge     Ge        0.844787587480671    0.626267560881810    0.691276207742548  0.0000
  Ge     Ge        0.640438828074533    0.299547971466529    0.702813322912724  0.0000
  Ge     Ge        0.325084494996433    0.254215195526439    0.275017679654394  0.0000
  Ge     Ge        0.641841178240900    0.320041617297928    0.020352292024936  0.0000
  Ge     Ge        0.327093136222978    0.219315909301027    0.959443508109948  0.0000
  Ge     Ge        0.171603430501232    0.706132913926070    0.946205084649441  0.0000
  Ge     Ge        0.350193804823642    0.625949918085895    0.949155048125879  0.0000
  Ge     Ge        0.146591360310422    0.302748327353568    0.947495682608526  0.0000
  Ge     Ge        0.671902222587438    0.719613275932055    0.018505097340450  0.0000
  Ge     Ge        0.824567603519259    0.241497207136317    0.013413534138896  0.0000
  Si     Si        0.547201377539650    0.986191106336324    0.627732502073829  0.0000
  Si     Si        0.345906674973715    0.646629411518537    0.260528303145787  0.0000
  Si     Si        0.167768885935095    0.712663843022582    0.256508867415411  0.0000
  Si     Si        0.849523708768552    0.637664112385322    0.003020729363643  0.0000
  O1     O1        0.076612327219795    0.208204431770428    0.352788255488579  0.0000
  O3     O3        0.399922174436797    0.767126109445512    0.345311040514065  0.0000
  O1     O1        0.872298905334363    0.080975328767358    0.596539788705858  0.0000
  O3     O3        0.613364211304899    0.842884851169591    0.601599579596709  0.0000
  O1     O1        0.908981912160296    0.732129916643895    0.599272681256923  0.0000
  O3     O3        0.579060140189160    0.174311272333404    0.609296323069571  0.0000
  O3     O3        0.131499365775271    0.870698140471417    0.338469068416694  0.0000
  O1     O1        0.371780861011445    0.119981367980524    0.378664706901481  0.0000
  O1     O1        0.025650643954043    0.970915114494092    0.532712146312357  0.0000
  O3     O3        0.471793049093867    0.951070947094117    0.545644650139370  0.0000
  O1     O1        0.971338978513471    0.944858060636130    0.287749868417462  0.0000
  O1     O1        0.520508561624749    0.998833056073442    0.297761793821223  0.0000
  O1     O1        0.969760192405452    0.951945290174722    0.782758359021129  0.0000
  O3     O3        0.526437494162778    0.971388136621478    0.782154520995886  0.0000
  O1     O1        0.577200605346266    0.214826683302985    0.110871747236521  0.0000
  O3     O3        0.910909112130223    0.745642813649748    0.083374174753260  0.0000
  O1     O1        0.377275039404973    0.076133774981629    0.862812726193332  0.0000
  O1     O1        0.118165002588778    0.839141449137546    0.853873391253622  0.0000
  O1     O1        0.417033356361253    0.727098435736284    0.860301866873844  0.0000
  O1     O1        0.085464737831777    0.188283490677141    0.850941103523635  0.0000
  O1     O1        0.633803321963457    0.879434596652950    0.116157350957083  0.0000
  O1     O1        0.869556063050557    0.103377331220877    0.115729564831529  0.0000
  O1     O1        0.481016467014467    0.941352105290548    0.041398251551796  0.0000
  O1     O1        0.018490719983943    0.997739334548594    0.038918848887214  0.0000
  O3     O3        0.144715805088598    0.535031224146868    0.319033936298814  0.0000
  O3     O3        0.342949419626949    0.463391600405983    0.324783873327953  0.0000
  O1     O1        0.834136324872069    0.422019911921364    0.634925599775580  0.0000
  O1     O1        0.649460659421325    0.497805009105207    0.640715584257848  0.0000
  O1     O1        0.228861091675182    0.227242955850504    0.278532947473261  0.0000
  O2     O2        0.259754048120576    0.727088621364335    0.252779813469671  0.0000
  O1     O1        0.726741478243374    0.189367570670703    0.704122878380601  0.0000
  O1     O1        0.759543448021700    0.739972799917571    0.689978693403554  0.0000
  O1     O1        0.111136550091847    0.322668443758445    0.105005586007379  0.0000
  O3     O3        0.377119910083207    0.623236942388139    0.113563982401495  0.0000
  O1     O1        0.857395413524707    0.208863884956541    0.855860550829152  0.0000
  O1     O1        0.635787766496408    0.724157955304938    0.861632964743302  0.0000
  O3     O3        0.875741295679234    0.611228579171774    0.852682981917039  0.0000
  O1     O1        0.609187299398354    0.328301304041273    0.861359631050805  0.0000
  O3     O3        0.138635994688573    0.718430024707772    0.107371335175909  0.0000
  O1     O1        0.359298826738613    0.210834318914231    0.119359083078248  0.0000
  O1     O1        0.652134223293756    0.524375867521393    0.081285217524253  0.0000
  O3     O3        0.839717457734691    0.452999024283152    0.063741571682800  0.0000
  O1     O1        0.339752861414088    0.420204653988101    0.897825505939329  0.0000
  O1     O1        0.161219095180482    0.498792063058658    0.887246893433073  0.0000
  O1     O1        0.728388808676541    0.211680039339867    0.018171746527839  0.0000
  O3     O3        0.769428278679317    0.743185099163863    0.007221125126760  0.0000
  O1     O1        0.231227424238321    0.186151796104933    0.959464903390432  0.0000
  O1     O1        0.266704898543195    0.745641835267915    0.938562083977523  0.0000
