data_c00993.vasp
_audit_creation_method             Generated by GULP
_audit_author_name                 Salvador R. G. Balestra
_symmetry_space_group_name_H-M     'P 1             '
_symmetry_Int_Tables_number        1

loop_
_symmetry_equiv_pos_site_id
_symmetry_equiv_pos_as_xyz
_cell_length_a                       17.5136
_cell_length_b                        7.8159
_cell_length_c                       10.2272
_cell_angle_alpha                   90.0441
_cell_angle_beta                    90.2926
_cell_angle_gamma                   91.6737

loop_
_atom_site_label
_atom_site_type_symbol
_atom_site_fract_x
_atom_site_fract_y
_atom_site_fract_z
_atom_site_charge
  Ge     Ge        0.052090000000021    0.000000000000000    0.372269999999958  0.0000
  Ge     Ge        0.436815372849128    0.049698065040956    0.378486597180928  0.0000
  Ge     Ge        0.944048079210363    0.046128393537464    0.620700732886441  0.0000
  Ge     Ge        0.543705026169409    0.991752092560123    0.127177424841775  0.0000
  Ge     Ge        0.938130495623891    0.054780779189463    0.128422228189313  0.0000
  Ge     Ge        0.440497891514642    0.056129828861368    0.870591972317894  0.0000
  Ge     Ge        0.317393721807590    0.763769542361148    0.260789483997639  0.0000
  Ge     Ge        0.843092271665427    0.357683156549393    0.691733541407016  0.0000
  Ge     Ge        0.636260943907217    0.681368777985277    0.690237965942198  0.0000
  Ge     Ge        0.818274738052730    0.761442320215388    0.692158811420940  0.0000
  Ge     Ge        0.660506433895875    0.278522082783296    0.695499019763926  0.0000
  Ge     Ge        0.343914416194856    0.365035377671397    0.261340579734422  0.0000
  Ge     Ge        0.665320079807002    0.277068956921509    0.013091139109684  0.0000
  Ge     Ge        0.816080197459935    0.769499404372456    0.010041705411821  0.0000
  Ge     Ge        0.339173975253241    0.362027271163838    0.941523741196315  0.0000
  Ge     Ge        0.135074672091889    0.688149255558014    0.947992165412233  0.0000
  Ge     Ge        0.316570011547180    0.767242967328301    0.945502952895707  0.0000
  Ge     Ge        0.158235565659434    0.280094974401827    0.951914853493492  0.0000
  Ge     Ge        0.635008239927011    0.678568889684390    0.007882231839687  0.0000
  Ge     Ge        0.846589259055010    0.366301673621674    0.009417605204924  0.0000
  Si     Si        0.541591200971298    0.993112466885881    0.623804776296491  0.0000
  Si     Si        0.038455803652877    0.992116303405206    0.879032269616423  0.0000
  Si     Si        0.163915174313364    0.293913717575315    0.260488594911556  0.0000
  Si     Si        0.137823008450838    0.685178194046171    0.254164655900978  0.0000
  O3     O3        0.122022381931544    0.158634509944231    0.354395290448283  0.0000
  O1     O1        0.356835484347430    0.921269021604338    0.356469845328512  0.0000
  O1     O1        0.907362050519437    0.245603978859028    0.601801907086485  0.0000
  O3     O3        0.571818289847873    0.803195481456081    0.602734572751165  0.0000
  O1     O1        0.870474379042239    0.899095615016022    0.595854118885283  0.0000
  O3     O3        0.609744582826426    0.131900615450021    0.599274640867154  0.0000
  O3     O3        0.082938174691923    0.794450582260009    0.344393714926198  0.0000
  O1     O1        0.409621889715077    0.255044544079308    0.349039055149476  0.0000
  O1     O1        0.023667975898296    0.008497421808634    0.532822708035976  0.0000
  O3     O3        0.467060722138034    0.031382167011735    0.539763097729726  0.0000
  O1     O1        0.970619154376827    0.040307590247610    0.286299103311143  0.0000
  O1     O1        0.512594961950215    0.991474118503570    0.286148229102195  0.0000
  O3     O3        0.968206618099580    0.028186478916011    0.786360698953678  0.0000
  O3     O3        0.517961311013391    0.012742282984267    0.776302999081477  0.0000
  O1     O1        0.622237385563440    0.126447230881162    0.110576642478644  0.0000
  O1     O1        0.859927194853358    0.920572889163697    0.107056489075251  0.0000
  O1     O1        0.402643217202069    0.254490502534584    0.847691381378505  0.0000
  O3     O3        0.071415248852524    0.803728785464498    0.856104903692011  0.0000
  O1     O1        0.367868133030284    0.905496063358860    0.849598370980543  0.0000
  O3     O3        0.105805557471891    0.135674705493581    0.859404835539357  0.0000
  O1     O1        0.566496555501761    0.784878568933898    0.090456033500643  0.0000
  O1     O1        0.913445132911102    0.261984405117842    0.098980908221809  0.0000
  O1     O1        0.470134626093454    0.058222000352479    0.031405432304759  0.0000
  O3     O3        0.012755609095126    0.997392836285582    0.029933347370584  0.0000
  O2     O2        0.149276764213779    0.490692442920311    0.306251477132060  0.0000
  O1     O1        0.339590279735047    0.567774846699131    0.323402639352585  0.0000
  O1     O1        0.829778289070317    0.557660685470143    0.631340501662305  0.0000
  O1     O1        0.645558625417177    0.479205430865070    0.629798624730405  0.0000
  O3     O3        0.253916124618195    0.264459401383041    0.264110678540872  0.0000
  O3     O3        0.219604329992542    0.783166019342488    0.251514709441238  0.0000
  O1     O1        0.756686574398852    0.244114208998037    0.692905870552631  0.0000
  O1     O1        0.721820519776067    0.795341174305541    0.689135704324646  0.0000
  O3     O3        0.130827912991379    0.266730310838255    0.114895847092996  0.0000
  O1     O1        0.351118696822466    0.783219520735253    0.103656547088282  0.0000
  O1     O1        0.875615299731007    0.381409280607157    0.849677886888117  0.0000
  O1     O1        0.606069491833703    0.653774957371509    0.848033062478641  0.0000
  O1     O1        0.848697201968863    0.779911045460958    0.852013953305899  0.0000
  O1     O1        0.630535655507209    0.265803655655247    0.855201659619644  0.0000
  O3     O3        0.103849683695253    0.674406202845283    0.108967861719562  0.0000
  O1     O1        0.370789583990721    0.378566835967380    0.101019498582612  0.0000
  O1     O1        0.648418604144482    0.479606857567191    0.072337230832866  0.0000
  O1     O1        0.833033596193253    0.567193404713718    0.069597606685590  0.0000
  O1     O1        0.326340773854754    0.563118476941995    0.884272978949649  0.0000
  O1     O1        0.142357350811810    0.483706196861973    0.893004297806499  0.0000
  O1     O1        0.761767199442840    0.248637724842182    0.010884686993935  0.0000
  O1     O1        0.719293597805160    0.797570300833093    0.009891555366549  0.0000
  O1     O1        0.253637812348446    0.245324010137857    0.941723379317139  0.0000
  O1     O1        0.220453268407969    0.801521903824246    0.944668891031114  0.0000
