data_c00905.vasp
_audit_creation_method             Generated by GULP
_audit_author_name                 Salvador R. G. Balestra
_symmetry_space_group_name_H-M     'P 1             '
_symmetry_Int_Tables_number        1

loop_
_symmetry_equiv_pos_site_id
_symmetry_equiv_pos_as_xyz
_cell_length_a                       17.5436
_cell_length_b                        7.8211
_cell_length_c                       10.1939
_cell_angle_alpha                   90.6560
_cell_angle_beta                    90.8153
_cell_angle_gamma                   88.0828

loop_
_atom_site_label
_atom_site_type_symbol
_atom_site_fract_x
_atom_site_fract_y
_atom_site_fract_z
_atom_site_charge
  Ge     Ge        0.052090000000021    0.000000000000000    0.372269999999958  0.0000
  Ge     Ge        0.439867682015829    0.944562123561186    0.357896538566369  0.0000
  Ge     Ge        0.939777101594116    0.938487109846029    0.610929636874304  0.0000
  Ge     Ge        0.550922895365081    0.998712917895213    0.116283692705862  0.0000
  Ge     Ge        0.938983443364143    0.945084356561621    0.124703957713418  0.0000
  Ge     Ge        0.444686980542871    0.933414587655260    0.860145250977234  0.0000
  Ge     Ge        0.040130640635900    0.003321371871441    0.869637312427513  0.0000
  Ge     Ge        0.145471803194254    0.312450619231388    0.256472476037629  0.0000
  Ge     Ge        0.816635082659853    0.225318685815827    0.686300076650075  0.0000
  Ge     Ge        0.660196527020467    0.707090626141599    0.685235942375283  0.0000
  Ge     Ge        0.841478882647660    0.628500368212891    0.679590810911577  0.0000
  Ge     Ge        0.633643238111585    0.302596708597629    0.686425602039832  0.0000
  Ge     Ge        0.170934039859354    0.709847168535431    0.254306489181536  0.0000
  Ge     Ge        0.636084310092017    0.318171527289761    0.000665356521283  0.0000
  Ge     Ge        0.845512322422917    0.632119662567572    0.999032313119464  0.0000
  Ge     Ge        0.320096159404645    0.220079954504012    0.937195751517948  0.0000
  Ge     Ge        0.166749334283370    0.715463290517574    0.937509287891515  0.0000
  Ge     Ge        0.346697235202990    0.627515728942277    0.933915518273365  0.0000
  Ge     Ge        0.141013408368785    0.312046118698043    0.935038807413938  0.0000
  Ge     Ge        0.818958847328140    0.231544215794390    0.003267861777258  0.0000
  Si     Si        0.541644779769031    0.991505801366515    0.608567715833605  0.0000
  Si     Si        0.350239172665004    0.631409261801383    0.241914524877072  0.0000
  Si     Si        0.324858337918304    0.238382909115937    0.247425199469878  0.0000
  Si     Si        0.666378128210757    0.712047917608509    0.997255893948243  0.0000
  O1     O1        0.080613653211232    0.203508868488762    0.343711998077324  0.0000
  O3     O3        0.406755165871889    0.740523248277466    0.331985551621336  0.0000
  O1     O1        0.865758659011491    0.085076743195817    0.586325390829831  0.0000
  O3     O3        0.609351949192573    0.849842147782525    0.587373794316892  0.0000
  O1     O1        0.905227772280596    0.737612442003102    0.588153679517657  0.0000
  O3     O3        0.572811059992512    0.180292535348030    0.590313707035669  0.0000
  O1     O1        0.130537045363096    0.867672667138831    0.349463444086571  0.0000
  O3     O3        0.370729050920774    0.105122153951950    0.338827628042680  0.0000
  O1     O1        0.021468996533956    0.981706007551634    0.531492100957391  0.0000
  O3     O3        0.467505679932108    0.955401773060060    0.522390729343072  0.0000
  O1     O1        0.971824126777117    0.946796308618798    0.284457737146788  0.0000
  O1     O1        0.521585089922792    0.977329883511109    0.274939485135122  0.0000
  O1     O1        0.963124817067341    0.956905193984403    0.776708859178163  0.0000
  O3     O3        0.519656551915193    0.972882906099634    0.761764318264260  0.0000
  O1     O1        0.576329267074283    0.207518573206476    0.096524146117420  0.0000
  O1     O1        0.910996339372852    0.741167442386716    0.088242826887776  0.0000
  O1     O1        0.370060731736220    0.080638782047870    0.840272745324051  0.0000
  O1     O1        0.114129651530670    0.855996452766521    0.844964349498757  0.0000
  O1     O1        0.410464472619607    0.731163347423730    0.840615349937259  0.0000
  O1     O1        0.074134980177492    0.204764712728681    0.846128564243617  0.0000
  O3     O3        0.627847822905932    0.860492671623736    0.084588950917263  0.0000
  O1     O1        0.861649212095032    0.082421869421545    0.103355789011857  0.0000
  O1     O1        0.473918291519616    0.951595021632667    0.020961926375877  0.0000
  O1     O1        0.014351364096242    0.001756332117118    0.032642317765536  0.0000
  O1     O1        0.150992048105920    0.515501090849183    0.319773856737547  0.0000
  O2     O2        0.340227151202940    0.436172756111977    0.291133537772400  0.0000
  O1     O1        0.828720811944703    0.426460428944765    0.622413298145318  0.0000
  O1     O1        0.643514742656373    0.503333145671745    0.626401298732299  0.0000
  O3     O3        0.235072934884093    0.209667647055228    0.258249223549174  0.0000
  O3     O3        0.268382968586478    0.729584753097825    0.244309477225618  0.0000
  O1     O1        0.720657998867900    0.193352628967689    0.690574906254704  0.0000
  O1     O1        0.755407188416868    0.743165017831117    0.676672756033368  0.0000
  O1     O1        0.115063154923718    0.331110049051596    0.097129905276706  0.0000
  O3     O3        0.381114960077775    0.622919653468159    0.095213590851617  0.0000
  O1     O1        0.851916141429041    0.213551681862297    0.845084106404423  0.0000
  O3     O3        0.633215550541183    0.717225958181338    0.848778239587431  0.0000
  O1     O1        0.874164980767785    0.615127061345371    0.839169829552086  0.0000
  O1     O1        0.599782663679224    0.321479702332206    0.843354905762538  0.0000
  O1     O1        0.135256805896061    0.728226564238781    0.097257765424032  0.0000
  O3     O3        0.352371509879426    0.207662660452915    0.099385471396826  0.0000
  O3     O3        0.649008910153566    0.525987517186945    0.055627749034230  0.0000
  O1     O1        0.838726517153668    0.432662997559416    0.062911129031457  0.0000
  O1     O1        0.333450253940169    0.424734936271034    0.880659364474436  0.0000
  O1     O1        0.153735665500998    0.510960708890404    0.875856423508210  0.0000
  O1     O1        0.722532383776594    0.209413757037537    0.998959129342132  0.0000
  O3     O3        0.756678633700477    0.737607638434301    0.995828201423033  0.0000
  O1     O1        0.224522150194626    0.187849371200377    0.932214638253460  0.0000
  O1     O1        0.262598071074648    0.748236979368071    0.932991672597125  0.0000
