data_c00998.vasp
_audit_creation_method             Generated by GULP
_audit_author_name                 Salvador R. G. Balestra
_symmetry_space_group_name_H-M     'P 1             '
_symmetry_Int_Tables_number        1

loop_
_symmetry_equiv_pos_site_id
_symmetry_equiv_pos_as_xyz
_cell_length_a                       17.4990
_cell_length_b                        7.8245
_cell_length_c                       10.3284
_cell_angle_alpha                   90.4484
_cell_angle_beta                    90.2266
_cell_angle_gamma                   91.6433

loop_
_atom_site_label
_atom_site_type_symbol
_atom_site_fract_x
_atom_site_fract_y
_atom_site_fract_z
_atom_site_charge
  Ge     Ge        0.052090000000021    0.000000000000000    0.372269999999958  0.0000
  Ge     Ge        0.449780365695339    0.052083498952443    0.380035859561173  0.0000
  Ge     Ge        0.945573053463811    0.048153485765918    0.622992170341971  0.0000
  Ge     Ge        0.558687809056736    0.996811337352210    0.132180252167448  0.0000
  Ge     Ge        0.946198315182933    0.060301200382803    0.124812511050155  0.0000
  Ge     Ge        0.051291155842371    0.989653854533319    0.876423592181950  0.0000
  Ge     Ge        0.175162175825168    0.284808698409513    0.263245223119162  0.0000
  Ge     Ge        0.325216964602933    0.766322331997668    0.265474246272543  0.0000
  Ge     Ge        0.844038402351992    0.360306065902634    0.692304471665963  0.0000
  Ge     Ge        0.639690198976761    0.682464737452105    0.706099348998335  0.0000
  Ge     Ge        0.820894467462025    0.763085285734863    0.694938695188228  0.0000
  Ge     Ge        0.661998734927891    0.276933775774116    0.709174134085825  0.0000
  Ge     Ge        0.144155573441247    0.685241324908189    0.255240730837521  0.0000
  Ge     Ge        0.359191938912359    0.367410560124770    0.269742574659008  0.0000
  Ge     Ge        0.673239612121743    0.291904072244620    0.021771978181891  0.0000
  Ge     Ge        0.825098646829141    0.773651492199511    0.009348118228564  0.0000
  Ge     Ge        0.357989113544752    0.360576816663231    0.959842918210967  0.0000
  Ge     Ge        0.154683850457118    0.681171513034004    0.937216833065732  0.0000
  Ge     Ge        0.174130297972847    0.282039289898546    0.951775085042219  0.0000
  Ge     Ge        0.855532544253030    0.374350906959458    0.007934586632977  0.0000
  Si     Si        0.542096431650368    0.989263861076707    0.637406495839123  0.0000
  Si     Si        0.448843304566662    0.046211654754077    0.889846324296240  0.0000
  Si     Si        0.332955153246277    0.753249944653029    0.955787608791488  0.0000
  Si     Si        0.647108439540548    0.686596293220354    0.012817039555112  0.0000
  O1     O1        0.130543604805816    0.132817803417827    0.356443158816265  0.0000
  O1     O1        0.369539744282832    0.928602226234771    0.348145256381875  0.0000
  O1     O1        0.908244162978392    0.246978379358825    0.603628712582667  0.0000
  O3     O3        0.573034177653864    0.798907420307542    0.623076476269378  0.0000
  O1     O1        0.872194006425327    0.900044364368594    0.598676720014082  0.0000
  O3     O3        0.610551683180422    0.128368801502486    0.617051248120394  0.0000
  O1     O1        0.073995662890624    0.793655737781610    0.332879718067022  0.0000
  O1     O1        0.425327569645075    0.260454027635650    0.359018932005060  0.0000
  O1     O1        0.023714202052370    0.009575636317485    0.531772540691441  0.0000
  O3     O3        0.473568685072075    0.021261792659390    0.541037213699499  0.0000
  O1     O1        0.974334363273672    0.062216735990037    0.283989703465663  0.0000
  O1     O1        0.525358701286944    0.991479974146867    0.287587676214386  0.0000
  O1     O1        0.974626748798661    0.031989470652219    0.783085114942924  0.0000
  O2     O2        0.514476129193917    0.009340620760459    0.786679817004382  0.0000
  O1     O1        0.630251670008365    0.150028890740971    0.124982515369456  0.0000
  O1     O1        0.865344152132098    0.932582769696634    0.102284959950649  0.0000
  O3     O3        0.414655075716491    0.231456536087582    0.864876339036707  0.0000
  O1     O1        0.091683638741915    0.794200261865823    0.848220010807901  0.0000
  O2     O2        0.382382563425892    0.897432354561921    0.879649241467398  0.0000
  O1     O1        0.125052592531438    0.137344502392319    0.857529240677190  0.0000
  O3     O3        0.587891924605829    0.792824936585746    0.096026098169069  0.0000
  O1     O1        0.925882869235565    0.267174350796862    0.084784962085560  0.0000
  O3     O3        0.483196378114618    0.050040855967325    0.033910108512204  0.0000
  O1     O1        0.020421443268052    0.985867400509194    0.035112150989775  0.0000
  O1     O1        0.155411418155319    0.486671181559211    0.320124921294775  0.0000
  O1     O1        0.345789246472534    0.569589649469777    0.328955000234517  0.0000
  O1     O1        0.830698683867020    0.559433085280719    0.632374958219782  0.0000
  O1     O1        0.645981271285862    0.478543741634582    0.648308616632276  0.0000
  O1     O1        0.271887446649351    0.259360909333405    0.266650050750885  0.0000
  O1     O1        0.229400824956633    0.800153848609628    0.269439502334726  0.0000
  O1     O1        0.758477214857152    0.245014431392089    0.698635827407755  0.0000
  O1     O1        0.724565299489454    0.797114445323449    0.695466497724933  0.0000
  O1     O1        0.139587228306469    0.266008649315722    0.107738681189329  0.0000
  O3     O3        0.356330308954395    0.756109253696787    0.106194619283823  0.0000
  O1     O1        0.878206698260107    0.390901262190733    0.847196506970828  0.0000
  O3     O3        0.615712421844965    0.658029644776072    0.867661701398689  0.0000
  O1     O1        0.855301154360847    0.784614335077523    0.851284880209741  0.0000
  O1     O1        0.636317132166539    0.261193143230518    0.869046039621189  0.0000
  O1     O1        0.123123848262638    0.661543047066254    0.094088280240667  0.0000
  O1     O1        0.393391376980678    0.375660213960717    0.113829667676049  0.0000
  O3     O3        0.660010269687021    0.501661003909664    0.073838796968570  0.0000
  O1     O1        0.848078120754622    0.577293155989013    0.069927315500656  0.0000
  O3     O3        0.349132072024359    0.564692082418824    0.898092289205161  0.0000
  O1     O1        0.161485278343403    0.478146117568446    0.880371419300000  0.0000
  O1     O1        0.769667607667298    0.262503227769281    0.020313255235189  0.0000
  O3     O3        0.726822637789972    0.794545812690416    0.007341786447503  0.0000
  O1     O1        0.270434149640265    0.256712277063909    0.964719689097196  0.0000
  O3     O3        0.243522876949565    0.788411671631418    0.940973507926862  0.0000
