data_c00983.vasp
_audit_creation_method             Generated by GULP
_audit_author_name                 Salvador R. G. Balestra
_symmetry_space_group_name_H-M     'P 1             '
_symmetry_Int_Tables_number        1

loop_
_symmetry_equiv_pos_site_id
_symmetry_equiv_pos_as_xyz
_cell_length_a                       17.7109
_cell_length_b                        7.8257
_cell_length_c                       10.1027
_cell_angle_alpha                   90.5409
_cell_angle_beta                    90.8852
_cell_angle_gamma                   89.3095

loop_
_atom_site_label
_atom_site_type_symbol
_atom_site_fract_x
_atom_site_fract_y
_atom_site_fract_z
_atom_site_charge
  Ge     Ge        0.052090000000021    0.000000000000000    0.372269999999958  0.0000
  Ge     Ge        0.448210969698410    0.966889475668938    0.359617919572352  0.0000
  Ge     Ge        0.941496012262701    0.950559562200196    0.617792920759737  0.0000
  Ge     Ge        0.546852093017362    0.998001161651048    0.101990741289992  0.0000
  Ge     Ge        0.944231035155820    0.938279642144963    0.115964620779066  0.0000
  Ge     Ge        0.438998473422214    0.934963254712811    0.855335199654993  0.0000
  Ge     Ge        0.143588353674648    0.316557634679176    0.259055240121350  0.0000
  Ge     Ge        0.353546038553271    0.646136257583195    0.242045751070200  0.0000
  Ge     Ge        0.821622292024458    0.245138197112342    0.666974293182626  0.0000
  Ge     Ge        0.660189895473329    0.700615980849946    0.685489110923859  0.0000
  Ge     Ge        0.173643089979701    0.718581561535538    0.255773121581749  0.0000
  Ge     Ge        0.324678718745819    0.243767098209397    0.253991572878278  0.0000
  Ge     Ge        0.646282174411183    0.304590652679083    0.988604050311783  0.0000
  Ge     Ge        0.845436499958043    0.631536093728336    0.996269996741602  0.0000
  Ge     Ge        0.319198118213071    0.225303616774974    0.934586355845638  0.0000
  Ge     Ge        0.160993928546401    0.706741613768302    0.933986336078214  0.0000
  Ge     Ge        0.338845863370312    0.627891277414538    0.918454467676443  0.0000
  Ge     Ge        0.140076616829618    0.302451406513078    0.938781150047888  0.0000
  Ge     Ge        0.665108448312678    0.705440503295936    0.004363325305903  0.0000
  Ge     Ge        0.819586305247583    0.219549986045079    0.995758726811911  0.0000
  Si     Si        0.549631510061005    0.998412007736542    0.620926268322780  0.0000
  Si     Si        0.043966135956267    0.993420998465381    0.869112160122440  0.0000
  Si     Si        0.840009468122256    0.642454686976052    0.682892813186990  0.0000
  Si     Si        0.650386697702126    0.314173368535570    0.665088298191610  0.0000
  O1     O1        0.078992597777747    0.207593512558249    0.349460611780944  0.0000
  O1     O1        0.423710546987392    0.760638639036672    0.318904529701417  0.0000
  O1     O1        0.879089364261485    0.112850651147501    0.578088378631595  0.0000
  O3     O3        0.614299449096802    0.857791683275350    0.592958333385740  0.0000
  O3     O3        0.894112446007747    0.759630128045569    0.597628443878822  0.0000
  O2     O2        0.582399732620352    0.191599360867520    0.618055657192158  0.0000
  O1     O1        0.129832834987585    0.872558937142340    0.347817885146033  0.0000
  O1     O1        0.370348088419300    0.097086236266305    0.351674833779197  0.0000
  O1     O1        0.022248922519395    0.966878938562108    0.531390765957922  0.0000
  O3     O3        0.479335944844508    0.975829865747670    0.523409393447404  0.0000
  O1     O1        0.974271514171047    0.947718328947442    0.277338835551877  0.0000
  O1     O1        0.520378899899959    0.034157681030636    0.262892740581263  0.0000
  O3     O3        0.968716995115242    0.965779947674269    0.784132470938849  0.0000
  O3     O3        0.519174665234746    0.974996047285529    0.768814431585370  0.0000
  O1     O1        0.569520131133967    0.191545004486909    0.030374595464543  0.0000
  O1     O1        0.914483655150719    0.733633462256116    0.084169893049547  0.0000
  O1     O1        0.368872105258944    0.086402074788946    0.836864934085265  0.0000
  O3     O3        0.106893664337256    0.847468387722395    0.840984041479869  0.0000
  O1     O1        0.400263238593958    0.738532407708092    0.822938651806465  0.0000
  O3     O3        0.077822531321951    0.180234397506236    0.845004444571225  0.0000
  O1     O1        0.620752006401008    0.855390605837135    0.101096539931417  0.0000
  O1     O1        0.871058046934411    0.078847977092247    0.088440701742444  0.0000
  O1     O1        0.468520238370918    0.925948709256085    0.018800141896247  0.0000
  O3     O3        0.022478030143595    0.986738241733410    0.023926996576241  0.0000
  O1     O1        0.157785154633685    0.518909109451348    0.320289352203418  0.0000
  O1     O1        0.343481340852854    0.447393522388140    0.310266076594867  0.0000
  O3     O3        0.837383096183455    0.454172394363970    0.621090935764501  0.0000
  O3     O3        0.640384875692809    0.504539245865353    0.608501787519831  0.0000
  O1     O1        0.229290375003298    0.210264285879920    0.256792264417999  0.0000
  O1     O1        0.268742452778159    0.756132785018119    0.252862740661813  0.0000
  O3     O3        0.727047223960881    0.217133234321962    0.625537966930143  0.0000
  O3     O3        0.756729485969873    0.729369171942864    0.686278661332160  0.0000
  O1     O1        0.110596632897257    0.330827684361512    0.098466501685967  0.0000
  O1     O1        0.372562260237008    0.609730186688954    0.078552652434960  0.0000
  O1     O1        0.839196899919081    0.198725459149930    0.830075087674253  0.0000
  O1     O1        0.630280280814937    0.727036232516202    0.844561553337920  0.0000
  O3     O3        0.871782028443526    0.626179517630764    0.831844011356604  0.0000
  O3     O3        0.656244398900917    0.355160667605664    0.822279034602862  0.0000
  O1     O1        0.136545507338088    0.719649788001334    0.097283545387982  0.0000
  O1     O1        0.355523796215471    0.217244114138711    0.093410654645360  0.0000
  O1     O1        0.646216401731631    0.503461778003856    0.061298887472286  0.0000
  O1     O1        0.837082963227761    0.426054374471968    0.047922840319977  0.0000
  O1     O1        0.326138559993968    0.424545885605770    0.863142990537840  0.0000
  O1     O1        0.148008618772972    0.501543128737515    0.873141713991505  0.0000
  O1     O1        0.725618443570214    0.184940434994362    0.024820315776078  0.0000
  O1     O1        0.760636016066154    0.738720789915496    0.009605628399977  0.0000
  O1     O1        0.224127258015308    0.188987757414605    0.942316220847443  0.0000
  O1     O1        0.255650254263986    0.745322706868986    0.922375508716650  0.0000
