data_c00960.vasp
_audit_creation_method             Generated by GULP
_audit_author_name                 Salvador R. G. Balestra
_symmetry_space_group_name_H-M     'P 1             '
_symmetry_Int_Tables_number        1

loop_
_symmetry_equiv_pos_site_id
_symmetry_equiv_pos_as_xyz
_cell_length_a                       17.7233
_cell_length_b                        7.8571
_cell_length_c                       10.3925
_cell_angle_alpha                   91.1242
_cell_angle_beta                    90.7107
_cell_angle_gamma                   89.9386

loop_
_atom_site_label
_atom_site_type_symbol
_atom_site_fract_x
_atom_site_fract_y
_atom_site_fract_z
_atom_site_charge
  Ge     Ge        0.052090000000021    0.000000000000000    0.372269999999958  0.0000
  Ge     Ge        0.446450313698006    0.033930585064803    0.376022000014737  0.0000
  Ge     Ge        0.947476554829533    0.986900430928130    0.625859963347281  0.0000
  Ge     Ge        0.553722750177041    0.029606596998886    0.127372072401188  0.0000
  Ge     Ge        0.940212635942361    0.997901179027958    0.123795019078637  0.0000
  Ge     Ge        0.445819678677515    0.010214335865886    0.874071055253546  0.0000
  Ge     Ge        0.166042253335237    0.294357503130296    0.265752948552747  0.0000
  Ge     Ge        0.327028960579395    0.747385772714731    0.256455541939181  0.0000
  Ge     Ge        0.826282513054029    0.271595509991725    0.700474249727392  0.0000
  Ge     Ge        0.662666164451875    0.733635358719907    0.697839438326493  0.0000
  Ge     Ge        0.843210857394888    0.679279063774767    0.698079215318987  0.0000
  Ge     Ge        0.644929201370900    0.327186609444109    0.701785501232443  0.0000
  Ge     Ge        0.347268321941849    0.341811906000453    0.267971465127270  0.0000
  Ge     Ge        0.644906343425517    0.344674729802697    0.015018383206484  0.0000
  Ge     Ge        0.342840828108801    0.324214159606227    0.953009869750463  0.0000
  Ge     Ge        0.144012688293097    0.684554659126597    0.951480866852386  0.0000
  Ge     Ge        0.324718741983425    0.731420588383134    0.944260731150366  0.0000
  Ge     Ge        0.161054811376337    0.277016056535585    0.953829520133596  0.0000
  Ge     Ge        0.670116422713780    0.746797588320550    0.010023176467793  0.0000
  Ge     Ge        0.826288810614365    0.287349873029874    0.010962197757672  0.0000
  Si     Si        0.547484476400254    0.015089773871446    0.625649335281846  0.0000
  Si     Si        0.045120272255163    0.994917187324238    0.882355972019730  0.0000
  Si     Si        0.150242016542182    0.693699882499487    0.256751073524943  0.0000
  Si     Si        0.846751455784647    0.686696254309280    0.003572886265829  0.0000
  O1     O1        0.113200052581757    0.167308527807502    0.360682865346560  0.0000
  O1     O1        0.371621676350432    0.900117715556191    0.346618964964116  0.0000
  O1     O1        0.877772824311262    0.137053131506514    0.604863370011373  0.0000
  O3     O3        0.610336353265906    0.869877483904658    0.602879475803145  0.0000
  O1     O1        0.906450670600359    0.789748145478508    0.609838329631396  0.0000
  O3     O3        0.584077137659623    0.200530647713793    0.609908079345745  0.0000
  O3     O3        0.094640759859387    0.805777828421917    0.342887889168721  0.0000
  O1     O1        0.413187687299784    0.236824537427598    0.358372837017253  0.0000
  O1     O1        0.023058498659165    0.006030371249476    0.529732612982305  0.0000
  O3     O3        0.475715703252435    0.996778571290626    0.532705652322503  0.0000
  O1     O1        0.971849337890719    0.012754629080211    0.279826540509454  0.0000
  O1     O1        0.523032525991925    0.998792167032982    0.280809522725499  0.0000
  O3     O3        0.976380935271069    0.016932672483790    0.785484496566388  0.0000
  O3     O3        0.520561137238802    0.992161885366416    0.772108681742372  0.0000
  O1     O1        0.580802100406539    0.236601042414022    0.103811682899879  0.0000
  O3     O3        0.904430041299439    0.796967953028477    0.089936608279103  0.0000
  O1     O1        0.404748667282850    0.207233355039725    0.862967418404725  0.0000
  O3     O3        0.079451588474748    0.805228597764369    0.867871538609182  0.0000
  O1     O1        0.376287567482296    0.859977373311588    0.848601678191077  0.0000
  O3     O3        0.110921233808178    0.132657814684484    0.859809630322225  0.0000
  O1     O1        0.631477050353001    0.902675779693887    0.103188624854400  0.0000
  O1     O1        0.873844741176705    0.155221936275370    0.111420218661969  0.0000
  O1     O1        0.480366906125175    0.975329059483295    0.026472757549774  0.0000
  O3     O3        0.017108533867541    0.030842932705770    0.027474003592462  0.0000
  O3     O3        0.159450543301510    0.507290404847552    0.314677056099315  0.0000
  O1     O1        0.343152406924694    0.549783287951001    0.319199930903421  0.0000
  O1     O1        0.835097765088995    0.474754548738921    0.642824528372002  0.0000
  O1     O1        0.650473835039881    0.527336334813098    0.640967458665351  0.0000
  O1     O1        0.260148495746007    0.245795791657064    0.276408840103711  0.0000
  O3     O3        0.230927202534683    0.787291003201738    0.252286333493821  0.0000
  O1     O1        0.731407371251901    0.227651898923058    0.701194898793599  0.0000
  O1     O1        0.757016616517844    0.780409586121131    0.690627857836748  0.0000
  O1     O1        0.133022202698986    0.271643847136478    0.111340432744175  0.0000
  O1     O1        0.357488268495678    0.748577080979616    0.100811316072287  0.0000
  O1     O1        0.858123261570236    0.259879519784364    0.857290691943091  0.0000
  O1     O1        0.634761995074639    0.747301613564930    0.855404993948797  0.0000
  O3     O3        0.874654724027063    0.672850010882593    0.857166958075911  0.0000
  O1     O1        0.613774474779062    0.344288161052814    0.857213633079924  0.0000
  O3     O3        0.117811764499561    0.678050513039469    0.111663294707415  0.0000
  O1     O1        0.375222236174833    0.331369644622800    0.109837038759656  0.0000
  O1     O1        0.651849885722580    0.549993499368169    0.072270504012589  0.0000
  O3     O3        0.838400754960338    0.499311338435564    0.059832982536512  0.0000
  O1     O1        0.334244374656757    0.523329985634593    0.892381453984073  0.0000
  O1     O1        0.147313999134820    0.479085242400747    0.894936188471728  0.0000
  O1     O1        0.731560445460940    0.246393363979963    0.017254998137791  0.0000
  O3     O3        0.766145084297241    0.781517535770346    0.002151242871129  0.0000
  O1     O1        0.255318011230697    0.228926098855056    0.951690122799171  0.0000
  O1     O1        0.230466683444896    0.780323468020893    0.939658089117269  0.0000
