data_c00900.vasp
_audit_creation_method             Generated by GULP
_audit_author_name                 Salvador R. G. Balestra
_symmetry_space_group_name_H-M     'P 1             '
_symmetry_Int_Tables_number        1

loop_
_symmetry_equiv_pos_site_id
_symmetry_equiv_pos_as_xyz
_cell_length_a                       17.6065
_cell_length_b                        7.8265
_cell_length_c                       10.1142
_cell_angle_alpha                   90.3765
_cell_angle_beta                    89.4768
_cell_angle_gamma                   88.3026

loop_
_atom_site_label
_atom_site_type_symbol
_atom_site_fract_x
_atom_site_fract_y
_atom_site_fract_z
_atom_site_charge
  Ge     Ge        0.052090000000021    0.000000000000000    0.372269999999958  0.0000
  Ge     Ge        0.445282884101613    0.956188032144193    0.424729618274672  0.0000
  Ge     Ge        0.941561241964084    0.951501794783129    0.619754769971388  0.0000
  Ge     Ge        0.551933560734139    0.008279439651077    0.169177962477540  0.0000
  Ge     Ge        0.950073466528973    0.945836543763719    0.116356846232179  0.0000
  Ge     Ge        0.452001109882018    0.941342341535211    0.910996784162769  0.0000
  Ge     Ge        0.054478598355509    0.005901329503464    0.861179111611184  0.0000
  Ge     Ge        0.143817297126071    0.321099477160931    0.301700400928260  0.0000
  Ge     Ge        0.351619975222187    0.641344441638232    0.305653674991929  0.0000
  Ge     Ge        0.669563013741791    0.712867055519337    0.734047078067441  0.0000
  Ge     Ge        0.650173474810054    0.316265573281058    0.724147352277685  0.0000
  Ge     Ge        0.326029664760950    0.240135328216186    0.307238726528374  0.0000
  Ge     Ge        0.645606673080209    0.317478976063290    0.047525162248384  0.0000
  Ge     Ge        0.852560374438120    0.635460140494629    0.049371326994658  0.0000
  Ge     Ge        0.328015437343072    0.228876227656284    0.988576797346171  0.0000
  Ge     Ge        0.176149918799030    0.719847802350725    0.987987272782504  0.0000
  Ge     Ge        0.354943186433662    0.632160412894882    0.982912801804008  0.0000
  Ge     Ge        0.146944322332309    0.314497406299637    0.984295006373655  0.0000
  Ge     Ge        0.672945451957521    0.719511332311159    0.054541162911670  0.0000
  Ge     Ge        0.824745539140346    0.229651175683508    0.045039715800997  0.0000
  Si     Si        0.554835642661683    0.003587927982334    0.664714708534740  0.0000
  Si     Si        0.828391583598192    0.248829682896274    0.731894423173341  0.0000
  Si     Si        0.849135471081187    0.643359341208250    0.738396518749750  0.0000
  Si     Si        0.173075539384764    0.714801309042224    0.302963028320485  0.0000
  O1     O1        0.084570267306881    0.202337528296640    0.398395269925221  0.0000
  O1     O1        0.415866747282078    0.752967777519917    0.394665662506984  0.0000
  O3     O3        0.875562216318776    0.118392364609340    0.638709714726237  0.0000
  O3     O3        0.622649100370102    0.864283824641493    0.638869892924808  0.0000
  O3     O3        0.904678107959608    0.752239314720794    0.647706629265585  0.0000
  O3     O3        0.588078031471731    0.189372478789831    0.638444333145971  0.0000
  O3     O3        0.126546938526475    0.851520452391878    0.392496612764939  0.0000
  O1     O1        0.368443640549316    0.092198618040678    0.408411605468058  0.0000
  O1     O1        0.971390678611158    0.953590278936450    0.456821120878125  0.0000
  O3     O3        0.479007642472951    0.966420448586504    0.585995693453944  0.0000
  O1     O1        0.026679593102691    0.991567212986100    0.207236984721503  0.0000
  O1     O1        0.521345341226403    0.012175542072857    0.330445613559460  0.0000
  O1     O1        0.025015714522743    0.985195601749886    0.700168645722645  0.0000
  O3     O3        0.530972238347504    0.990250071720670    0.819647896870762  0.0000
  O1     O1        0.576025749217168    0.213129247390661    0.128751909855368  0.0000
  O1     O1        0.918112813719423    0.741997209756714    0.139039991977730  0.0000
  O1     O1        0.378186459446687    0.087046240481022    0.890534262685911  0.0000
  O1     O1        0.129388407625717    0.867505666115338    0.894528752230636  0.0000
  O1     O1        0.419227885521396    0.738660096092476    0.888032027253976  0.0000
  O1     O1        0.083878666219768    0.210824589257749    0.887106853755801  0.0000
  O1     O1        0.628957834449319    0.870060001262980    0.152835701696107  0.0000
  O1     O1        0.874477354962894    0.089113807735114    0.139650838967004  0.0000
  O1     O1        0.478303378109872    0.943387066460473    0.074807503239918  0.0000
  O1     O1        0.975843360592298    0.960814629568655    0.952205874635132  0.0000
  O3     O3        0.156578014342082    0.526217886273777    0.359282995716191  0.0000
  O1     O1        0.343156886525980    0.440795672115262    0.368810171733424  0.0000
  O2     O2        0.840040875318393    0.446877899916306    0.687822217913860  0.0000
  O1     O1        0.651880356196854    0.518034932830107    0.661941355040062  0.0000
  O1     O1        0.230351849122765    0.213358545855644    0.299043718056813  0.0000
  O3     O3        0.262764202202852    0.746196951916542    0.306865260066316  0.0000
  O3     O3        0.739187528264261    0.214779466008155    0.721952487751791  0.0000
  O3     O3        0.766801969579790    0.738272627706183    0.736799542396425  0.0000
  O1     O1        0.110760622908395    0.327763399587200    0.142893302500051  0.0000
  O1     O1        0.382863325542647    0.619457567525097    0.145651610167535  0.0000
  O3     O3        0.855950934552376    0.220665388495242    0.881033067543179  0.0000
  O1     O1        0.638761509455452    0.728931833316984    0.895185890104360  0.0000
  O3     O3        0.882339320420718    0.634359791685662    0.884434431563372  0.0000
  O1     O1        0.621080791851513    0.342862064205150    0.884818760479273  0.0000
  O3     O3        0.144858498497488    0.725614823605168    0.151589365915157  0.0000
  O1     O1        0.361422357024153    0.216705475662834    0.148408875736309  0.0000
  O1     O1        0.658023472029519    0.516388756050500    0.113537075675367  0.0000
  O1     O1        0.841027754393139    0.433558489626665    0.103548135368603  0.0000
  O1     O1        0.342179988014910    0.430846499662970    0.925715603301840  0.0000
  O1     O1        0.161017897002969    0.516883177661506    0.927971093871580  0.0000
  O1     O1        0.729436235463615    0.197265890785115    0.052660709974129  0.0000
  O1     O1        0.768457226649069    0.752399948917372    0.054433684723026  0.0000
  O1     O1        0.232132306417747    0.199094365853391    0.987856099799959  0.0000
  O1     O1        0.271406211698170    0.753606643177241    0.982596321173750  0.0000
