data_c00964.vasp
_audit_creation_method             Generated by GULP
_audit_author_name                 Salvador R. G. Balestra
_symmetry_space_group_name_H-M     'P 1             '
_symmetry_Int_Tables_number        1

loop_
_symmetry_equiv_pos_site_id
_symmetry_equiv_pos_as_xyz
_cell_length_a                       17.6010
_cell_length_b                        7.8480
_cell_length_c                       10.1645
_cell_angle_alpha                   90.7231
_cell_angle_beta                    91.3708
_cell_angle_gamma                   92.2164

loop_
_atom_site_label
_atom_site_type_symbol
_atom_site_fract_x
_atom_site_fract_y
_atom_site_fract_z
_atom_site_charge
  Ge     Ge        0.052090000000021    0.000000000000000    0.372269999999958  0.0000
  Ge     Ge        0.451704219908434    0.059129270568173    0.328608392526959  0.0000
  Ge     Ge        0.941098851872275    0.041871325653632    0.616387792526746  0.0000
  Ge     Ge        0.549197732307872    0.002129234968464    0.063403319940090  0.0000
  Ge     Ge        0.942143752976272    0.060437129064669    0.118393241592472  0.0000
  Ge     Ge        0.435834198156891    0.053636513437190    0.808878016015959  0.0000
  Ge     Ge        0.172190379062202    0.287325772480352    0.257931299753937  0.0000
  Ge     Ge        0.326446929889025    0.772348678165039    0.251602367561334  0.0000
  Ge     Ge        0.838347625234273    0.348169792138350    0.686951008230035  0.0000
  Ge     Ge        0.638668175086261    0.689502679660265    0.685527392766645  0.0000
  Ge     Ge        0.818358812882061    0.754374234982881    0.677336769323766  0.0000
  Ge     Ge        0.145220860163172    0.687771609521643    0.257736799477541  0.0000
  Ge     Ge        0.353564014608213    0.367906391266265    0.248644789129668  0.0000
  Ge     Ge        0.670369526333847    0.306172334108298    0.010824301117592  0.0000
  Ge     Ge        0.821836740014069    0.770836370720751    0.995623847067165  0.0000
  Ge     Ge        0.341387609219805    0.358514455899354    0.929520126574821  0.0000
  Ge     Ge        0.137070929129426    0.680350252266777    0.937613540647763  0.0000
  Ge     Ge        0.317813375275230    0.764496031805566    0.932317247974634  0.0000
  Ge     Ge        0.159416620432189    0.279445371208015    0.939401581650423  0.0000
  Ge     Ge        0.849806382723987    0.368609737169250    0.004768717997400  0.0000
  Si     Si        0.547571765841239    0.001348478176482    0.581286199367235  0.0000
  Si     Si        0.040663266503496    0.985142216040209    0.871285273654360  0.0000
  Si     Si        0.662193858113151    0.295998971932483    0.691996175254479  0.0000
  Si     Si        0.644874440850266    0.690996242525342    0.002872936838002  0.0000
  O1     O1        0.128365739977865    0.138575371585005    0.354103216522228  0.0000
  O1     O1        0.377165344071270    0.914690203265427    0.350520972515258  0.0000
  O1     O1        0.901150841349950    0.235805965343226    0.597045609995616  0.0000
  O3     O3        0.571112501444582    0.808470523442863    0.607155020924101  0.0000
  O1     O1        0.869803407902729    0.890823660366719    0.581537227275563  0.0000
  O2     O2        0.615274050114543    0.133797166010581    0.628734420534875  0.0000
  O1     O1        0.079789606803692    0.795710260706103    0.344247586880826  0.0000
  O1     O1        0.419368415758534    0.261695559853927    0.340289263848375  0.0000
  O1     O1        0.021682706472730    0.017736230985714    0.531249377549023  0.0000
  O3     O3        0.530730391712698    0.025589777435912    0.426788684757344  0.0000
  O1     O1        0.973717732664098    0.048420601022258    0.278242759970839  0.0000
  O1     O1        0.476772113271310    0.025651169390996    0.167372510168061  0.0000
  O3     O3        0.967141894981220    0.010391665395374    0.781503780111779  0.0000
  O3     O3        0.468237901465259    0.038564383786643    0.649117802028109  0.0000
  O1     O1        0.621501729461507    0.153040627355467    0.093082975885203  0.0000
  O1     O1        0.862199623729626    0.930111782507133    0.092271203911150  0.0000
  O1     O1        0.402162152633477    0.253282980083457    0.831368153309541  0.0000
  O3     O3        0.072810554966902    0.798001354122039    0.849088511994723  0.0000
  O1     O1        0.363714820318300    0.905359343903505    0.831891683510914  0.0000
  O3     O3        0.105951598553625    0.130431054482585    0.846936021509197  0.0000
  O3     O3        0.587434217598612    0.803150316567799    0.082545988691976  0.0000
  O1     O1        0.918999851503461    0.267818567988980    0.091497728763196  0.0000
  O1     O1        0.514674064297283    0.023094008931738    0.905598476743862  0.0000
  O3     O3        0.016300481520794    0.996174191030677    0.023549129485262  0.0000
  O1     O1        0.159522048981534    0.489379329039363    0.320502626446325  0.0000
  O1     O1        0.342707734817107    0.569337201724849    0.306907358125428  0.0000
  O1     O1        0.860481542846599    0.560908563609310    0.677026864682951  0.0000
  O3     O3        0.618007511105009    0.470231778211207    0.671279633288132  0.0000
  O1     O1        0.267531592832881    0.254343697216613    0.251264041377135  0.0000
  O1     O1        0.230626589719338    0.803391768307669    0.257140009148439  0.0000
  O3     O3        0.744887592311739    0.313107561942843    0.628757281857969  0.0000
  O1     O1        0.725796103129228    0.728686869714094    0.619824585357152  0.0000
  O1     O1        0.133126993347245    0.270635270102124    0.100949313027003  0.0000
  O1     O1        0.354357729450834    0.785611807300136    0.089993373216350  0.0000
  O1     O1        0.848211547543553    0.286441223548186    0.847110048188090  0.0000
  O3     O3        0.640539958937411    0.744668281683494    0.849840579873125  0.0000
  O1     O1        0.815520836246256    0.834284285187347    0.835592822297476  0.0000
  O3     O3        0.677039830218312    0.259571946781762    0.844834245997069  0.0000
  O1     O1        0.112419069454303    0.657576923399498    0.098528647235468  0.0000
  O1     O1        0.379547353653455    0.372430482072892    0.086478493873262  0.0000
  O3     O3        0.621539045937363    0.493967174871376    0.021450125724756  0.0000
  O1     O1        0.870408877429531    0.584484689529171    0.004042640752220  0.0000
  O1     O1        0.328395767410777    0.559858484782952    0.873610551279574  0.0000
  O1     O1        0.143380829187072    0.478388608845536    0.874966584741361  0.0000
  O1     O1        0.761522355570690    0.329801037900755    0.071167616380622  0.0000
  O3     O3        0.731632093376918    0.721739471477799    0.052852456956025  0.0000
  O1     O1        0.254886981771591    0.246766491612265    0.932135669602861  0.0000
  O1     O1        0.222245975307406    0.795592125533760    0.934858926761250  0.0000
