data_c00987.vasp
_audit_creation_method             Generated by GULP
_audit_author_name                 Salvador R. G. Balestra
_symmetry_space_group_name_H-M     'P 1             '
_symmetry_Int_Tables_number        1

loop_
_symmetry_equiv_pos_site_id
_symmetry_equiv_pos_as_xyz
_cell_length_a                       17.7354
_cell_length_b                        7.8803
_cell_length_c                       10.2536
_cell_angle_alpha                   88.7559
_cell_angle_beta                    90.9291
_cell_angle_gamma                   90.0999

loop_
_atom_site_label
_atom_site_type_symbol
_atom_site_fract_x
_atom_site_fract_y
_atom_site_fract_z
_atom_site_charge
  Ge     Ge        0.052090000000021    0.000000000000000    0.372269999999958  0.0000
  Ge     Ge        0.450533026332913    0.973171872291870    0.402218656139978  0.0000
  Ge     Ge        0.940571053648910    0.022659792343618    0.614383666437209  0.0000
  Ge     Ge        0.554454069385722    0.985597794085565    0.148778797830161  0.0000
  Ge     Ge        0.953328221568522    0.005613046078124    0.105591653476169  0.0000
  Ge     Ge        0.446512327721812    0.996177966080026    0.894663383626228  0.0000
  Ge     Ge        0.149508762078452    0.315007501669215    0.289079204733714  0.0000
  Ge     Ge        0.350236093845980    0.666685314180406    0.288792082726884  0.0000
  Ge     Ge        0.846683345796398    0.341465404648840    0.710243526893330  0.0000
  Ge     Ge        0.661494825506512    0.303942753613736    0.713243490181475  0.0000
  Ge     Ge        0.169895036158291    0.720852264907272    0.291794319789109  0.0000
  Ge     Ge        0.329582319240675    0.259518591305454    0.283301498696402  0.0000
  Ge     Ge        0.671618821327951    0.271565533482797    0.029174445687990  0.0000
  Ge     Ge        0.829945028907467    0.725418204653983    0.038640195949537  0.0000
  Ge     Ge        0.326745633551412    0.274648003919295    0.966595455902456  0.0000
  Ge     Ge        0.165442660264379    0.730867280136202    0.974398185941306  0.0000
  Ge     Ge        0.347098647575305    0.678915987307191    0.971295986038968  0.0000
  Ge     Ge        0.144904310693444    0.323708563148564    0.972167998224738  0.0000
  Ge     Ge        0.651033611859541    0.677026040365126    0.037100735731802  0.0000
  Ge     Ge        0.852059335615281    0.321210057702305    0.026842617655860  0.0000
  Si     Si        0.554319158825114    0.006192413146479    0.653897337359570  0.0000
  Si     Si        0.052564173462851    0.015182237326915    0.855941509758073  0.0000
  Si     Si        0.651803410703637    0.694051743670846    0.727577485952928  0.0000
  Si     Si        0.830082870103133    0.732140095391199    0.729623894294432  0.0000
  O1     O1        0.090836303197944    0.198297415965822    0.387763714252396  0.0000
  O1     O1        0.415470662519420    0.773003348993216    0.380787657250589  0.0000
  O1     O1        0.904263739792812    0.223544820571515    0.614883587164883  0.0000
  O2     O2        0.604920782626647    0.835226749832163    0.644535974764110  0.0000
  O3     O3        0.866981226279459    0.886680986806965    0.650994618847606  0.0000
  O3     O3        0.607100476304933    0.166862983356912    0.620557322002159  0.0000
  O1     O1        0.120619981605634    0.847632704119694    0.393798806031663  0.0000
  O1     O1        0.379149154721993    0.116868152660301    0.377829477782222  0.0000
  O1     O1        0.972600399800721    0.976635334884479    0.462086098221348  0.0000
  O3     O3        0.481400255522964    0.993869382987016    0.562652952750251  0.0000
  O1     O1        0.026741516144009    0.977701085353142    0.209738860792458  0.0000
  O1     O1        0.527101641857781    0.008592621632761    0.306791523636708  0.0000
  O3     O3        0.022176346412446    0.002810685254527    0.708246203027095  0.0000
  O3     O3        0.524730468959867    0.024628385686577    0.800491894821712  0.0000
  O1     O1        0.627708605432991    0.123481575493723    0.123753614589549  0.0000
  O1     O1        0.882892114830544    0.857940960358132    0.130498459178018  0.0000
  O1     O1        0.375861701585853    0.143319379529650    0.868764654468658  0.0000
  O3     O3        0.120132542490367    0.882142573921473    0.878226662011819  0.0000
  O1     O1        0.407837530739183    0.798087111897921    0.879070689492258  0.0000
  O3     O3        0.081199515318083    0.205658660050674    0.883116321392550  0.0000
  O1     O1        0.584319712726337    0.781441947261251    0.121124563035486  0.0000
  O1     O1        0.915005763769609    0.204335529315173    0.118759168913452  0.0000
  O1     O1        0.477113487807761    0.028311893659626    0.052434550974210  0.0000
  O3     O3        0.982841815428760    0.970659413952660    0.947953198900058  0.0000
  O1     O1        0.160155386302538    0.514061032605608    0.347727349560038  0.0000
  O1     O1        0.340865191761167    0.461346935694617    0.343099695275806  0.0000
  O3     O3        0.849200219002313    0.554732434264104    0.663102507313116  0.0000
  O3     O3        0.644564772267797    0.512891300656113    0.661073711363660  0.0000
  O1     O1        0.235160967928310    0.212409022462125    0.283838753597653  0.0000
  O1     O1        0.264288483425888    0.768492740703429    0.293034343909852  0.0000
  O1     O1        0.755741393840812    0.266709186735068    0.697232197065643  0.0000
  O2     O2        0.739332713181158    0.751451154622900    0.735645240134103  0.0000
  O1     O1        0.115016150097086    0.325430554989777    0.130658944653066  0.0000
  O1     O1        0.380317546608049    0.669956616972601    0.129973156555905  0.0000
  O1     O1        0.880617742049315    0.322600800188533    0.866994782770828  0.0000
  O3     O3        0.622059599494632    0.678991242240351    0.873953949815507  0.0000
  O3     O3        0.859603960346384    0.730114397023556    0.877747178753354  0.0000
  O1     O1        0.636048601477717    0.277039444642543    0.872352428279969  0.0000
  O1     O1        0.136302657565316    0.733881408282283    0.132978582413856  0.0000
  O1     O1        0.359868072228356    0.259564908659495    0.125259785205522  0.0000
  O1     O1        0.659716149349321    0.471475534975740    0.091370810124627  0.0000
  O1     O1        0.843364214074711    0.518045375339056    0.090400231201930  0.0000
  O1     O1        0.338167010493412    0.480465268763995    0.910210981322699  0.0000
  O1     O1        0.149560265341267    0.530044701844735    0.915329312516087  0.0000
  O1     O1        0.765356303528408    0.223112506089618    0.024226044179062  0.0000
  O1     O1        0.736855770022123    0.777077476702714    0.050946781139952  0.0000
  O1     O1        0.232052263023010    0.230240705442857    0.965858443064343  0.0000
  O1     O1        0.259935712482380    0.774856295802876    0.972609085806077  0.0000
