data_c00927.vasp
_audit_creation_method             Generated by GULP
_audit_author_name                 Salvador R. G. Balestra
_symmetry_space_group_name_H-M     'P 1             '
_symmetry_Int_Tables_number        1

loop_
_symmetry_equiv_pos_site_id
_symmetry_equiv_pos_as_xyz
_cell_length_a                       17.5417
_cell_length_b                        7.8312
_cell_length_c                       10.1392
_cell_angle_alpha                   89.4178
_cell_angle_beta                    90.4904
_cell_angle_gamma                   88.1479

loop_
_atom_site_label
_atom_site_type_symbol
_atom_site_fract_x
_atom_site_fract_y
_atom_site_fract_z
_atom_site_charge
  Ge     Ge        0.052090000000021    0.000000000000000    0.372269999999958  0.0000
  Ge     Ge        0.432182593618763    0.958079469546148    0.377504225446631  0.0000
  Ge     Ge        0.937468600041570    0.962782166845465    0.611766648474502  0.0000
  Ge     Ge        0.543526543955106    0.015570826509973    0.130581406439054  0.0000
  Ge     Ge        0.935909942261180    0.954140236217306    0.129771906596334  0.0000
  Ge     Ge        0.441450948082198    0.953910404893806    0.870173022084864  0.0000
  Ge     Ge        0.036899894961653    0.019062958576565    0.872886741344588  0.0000
  Ge     Ge        0.343386377772048    0.636611528152134    0.263876032417491  0.0000
  Ge     Ge        0.814555722333433    0.248733360189071    0.688702013067835  0.0000
  Ge     Ge        0.655829056409992    0.731447991617007    0.692093931988489  0.0000
  Ge     Ge        0.838134803195185    0.652594303175054    0.685612537463872  0.0000
  Ge     Ge        0.632393188970126    0.328443198913967    0.690115017290388  0.0000
  Ge     Ge        0.632828444806843    0.330646706934874    0.009279645237177  0.0000
  Ge     Ge        0.845045465019732    0.643817962001518    0.005784917775241  0.0000
  Ge     Ge        0.317081677769739    0.241809276086261    0.945107116177856  0.0000
  Ge     Ge        0.162405465664789    0.730989128089817    0.950863449546040  0.0000
  Ge     Ge        0.342572382311789    0.647851834742884    0.944897354058351  0.0000
  Ge     Ge        0.137725909392780    0.322410603377215    0.941635074741048  0.0000
  Ge     Ge        0.663462742494010    0.731456623356011    0.012192299704425  0.0000
  Ge     Ge        0.814446807204801    0.240959433272839    0.008466430276989  0.0000
  Si     Si        0.538449037053240    0.019656257732112    0.619434187177720  0.0000
  Si     Si        0.140795904890756    0.314828895886477    0.251290375002367  0.0000
  Si     Si        0.161337839582468    0.703799772526218    0.261006848967118  0.0000
  Si     Si        0.319527276853856    0.246110916393657    0.255932990504640  0.0000
  O3     O3        0.090677702801107    0.197514175420737    0.343611055994318  0.0000
  O1     O1        0.402411212647964    0.753026887388560    0.360637531774598  0.0000
  O1     O1        0.865149088424487    0.114163159724981    0.587727989666620  0.0000
  O3     O3        0.604712367587933    0.876987442650419    0.593065142558631  0.0000
  O1     O1        0.900092425713926    0.765217848803696    0.590352910468441  0.0000
  O3     O3        0.569774887633779    0.207894425157876    0.597932147160624  0.0000
  O3     O3        0.119719117501589    0.836704658717802    0.357009458278660  0.0000
  O3     O3        0.353785966309669    0.091835117385163    0.343614821062626  0.0000
  O1     O1        0.020836390699831    0.999454056623392    0.533052859244155  0.0000
  O3     O3        0.461375412487371    0.986684290639443    0.539890648455310  0.0000
  O1     O1        0.968413684005440    0.965819188861865    0.290171980618521  0.0000
  O1     O1        0.511521124956549    0.003682215517974    0.289912425529725  0.0000
  O1     O1        0.960561712925084    0.976418607786313    0.778489888562350  0.0000
  O3     O3        0.518254597964467    0.998754446099928    0.774771454446704  0.0000
  O1     O1        0.566950821880293    0.223015340825466    0.097763435448083  0.0000
  O1     O1        0.911655705363593    0.747957654181116    0.095632513229419  0.0000
  O1     O1        0.369256001121525    0.106190542140206    0.849922784255092  0.0000
  O1     O1        0.110602452773223    0.869591795513634    0.854384006177811  0.0000
  O1     O1        0.404753812579695    0.755342952163566    0.847558292846231  0.0000
  O1     O1        0.072358132870702    0.219901289396034    0.848324994381750  0.0000
  O1     O1        0.622348239108360    0.882530163631078    0.110823437808803  0.0000
  O1     O1        0.857353078108825    0.088250042449098    0.107266478971353  0.0000
  O1     O1        0.470381456293713    0.952665224408677    0.032548521782496  0.0000
  O1     O1        0.010534889273747    0.014556733816037    0.035995241980656  0.0000
  O2     O2        0.142114433362738    0.509260796649225    0.305069521231055  0.0000
  O3     O3        0.342938923148596    0.425465249259827    0.317691409637563  0.0000
  O1     O1        0.825014750276881    0.452904559014958    0.626779740207699  0.0000
  O1     O1        0.641323095622752    0.530494829581664    0.628420781657015  0.0000
  O2     O2        0.227611219992520    0.238748435447269    0.245774158321207  0.0000
  O3     O3        0.251625239714222    0.724763932272072    0.266920023702185  0.0000
  O1     O1        0.718325493891389    0.215485840872737    0.690801099222786  0.0000
  O1     O1        0.751802023605092    0.765925539799850    0.688772220328483  0.0000
  O3     O3        0.107020008259141    0.318939506139301    0.105056797970718  0.0000
  O1     O1        0.375628944879903    0.639291607976037    0.105802201625862  0.0000
  O1     O1        0.847614274204427    0.229659175045459    0.849138728205784  0.0000
  O1     O1        0.627015323346181    0.742315475237157    0.853676183377252  0.0000
  O1     O1        0.873119723828441    0.630455402762641    0.844122512780489  0.0000
  O1     O1        0.601071205155869    0.352110365449495    0.848744339105652  0.0000
  O3     O3        0.130654909334327    0.741064331102248    0.113405690654865  0.0000
  O3     O3        0.350684610194756    0.229494561663318    0.107707775565054  0.0000
  O1     O1        0.646433290910650    0.529082388518560    0.072667772296020  0.0000
  O1     O1        0.832773644230302    0.442126286314578    0.066898967843066  0.0000
  O1     O1        0.328962561364113    0.447979473848925    0.888415122735585  0.0000
  O1     O1        0.149053734100231    0.527024425016504    0.892307779276648  0.0000
  O1     O1        0.717910959009858    0.214843394189886    0.007224409481581  0.0000
  O1     O1        0.759706595731980    0.759010206540533    0.007635965310739  0.0000
  O1     O1        0.222180130320816    0.203772861153028    0.935307000289261  0.0000
  O1     O1        0.257657413807468    0.766394854407096    0.947234805994199  0.0000
