data_c00967.vasp
_audit_creation_method             Generated by GULP
_audit_author_name                 Salvador R. G. Balestra
_symmetry_space_group_name_H-M     'P 1             '
_symmetry_Int_Tables_number        1

loop_
_symmetry_equiv_pos_site_id
_symmetry_equiv_pos_as_xyz
_cell_length_a                       17.5609
_cell_length_b                        7.8313
_cell_length_c                       10.1661
_cell_angle_alpha                   90.0045
_cell_angle_beta                    91.6166
_cell_angle_gamma                   91.6766

loop_
_atom_site_label
_atom_site_type_symbol
_atom_site_fract_x
_atom_site_fract_y
_atom_site_fract_z
_atom_site_charge
  Ge     Ge        0.052090000000021    0.000000000000000    0.372269999999958  0.0000
  Ge     Ge        0.447778407001815    0.063469507596731    0.375159750287510  0.0000
  Ge     Ge        0.940283583765157    0.042196216773689    0.615714886087092  0.0000
  Ge     Ge        0.544456183127823    0.998796841191602    0.114479552573583  0.0000
  Ge     Ge        0.953914310997094    0.059572313357302    0.106315511635537  0.0000
  Ge     Ge        0.438312326896955    0.059525095580796    0.852197660959626  0.0000
  Ge     Ge        0.170723241185705    0.285565525836666    0.285894136215819  0.0000
  Ge     Ge        0.325654712705685    0.778165391305382    0.289864638233458  0.0000
  Ge     Ge        0.841946512737461    0.354540126178900    0.726300527959046  0.0000
  Ge     Ge        0.636490498093117    0.682309535399367    0.732901227283901  0.0000
  Ge     Ge        0.820457353288168    0.752849045709080    0.721524591737483  0.0000
  Ge     Ge        0.146709598194399    0.690862179556496    0.291714612070956  0.0000
  Ge     Ge        0.350811778179692    0.371860503855549    0.286349159971213  0.0000
  Ge     Ge        0.671893962119082    0.289296915413392    0.053177411443559  0.0000
  Ge     Ge        0.825975049283582    0.771198820754707    0.039361598434540  0.0000
  Ge     Ge        0.348154149486641    0.374853806190519    0.966723393373716  0.0000
  Ge     Ge        0.320873572143661    0.775584994515556    0.972095160988895  0.0000
  Ge     Ge        0.163227207564739    0.302032590858457    0.968355829410981  0.0000
  Ge     Ge        0.644670981590853    0.689906910938561    0.049336420185078  0.0000
  Ge     Ge        0.850381630043909    0.369442765248043    0.052066580935517  0.0000
  Si     Si        0.548537210448211    0.999352716778527    0.622137830272559  0.0000
  Si     Si        0.052048680414948    0.004214286670694    0.857379527936001  0.0000
  Si     Si        0.663501471419495    0.289220012710691    0.735981703967407  0.0000
  Si     Si        0.140732833264018    0.697354259859146    0.981202486652276  0.0000
  O1     O1        0.125167511324025    0.150058388919513    0.391521469265070  0.0000
  O1     O1        0.375909254299773    0.912807918708696    0.394670999862212  0.0000
  O1     O1        0.908405713655580    0.241858379936807    0.646948429022323  0.0000
  O3     O3        0.573079153761614    0.805828145752618    0.642765880820274  0.0000
  O1     O1        0.865216968519956    0.900986590537189    0.624471990599281  0.0000
  O2     O2        0.615177951702922    0.133556153252204    0.668329793114235  0.0000
  O1     O1        0.084888200600861    0.796687601009159    0.388224844880437  0.0000
  O1     O1        0.413816412428082    0.264969549533980    0.386764596357550  0.0000
  O1     O1        0.973148008267627    0.039838287145201    0.457532383495045  0.0000
  O3     O3        0.529039490372127    0.028114824191828    0.468418252152193  0.0000
  O1     O1        0.028799040028471    0.016923773973475    0.205656773292002  0.0000
  O1     O1        0.471266792802797    0.040077890345876    0.211930752795232  0.0000
  O3     O3        0.021059544211498    0.988685541988716    0.707803052146952  0.0000
  O3     O3        0.469687883876219    0.037689468338488    0.692914918453850  0.0000
  O1     O1        0.617775784170122    0.148593505571463    0.138109181587385  0.0000
  O1     O1        0.878066924463916    0.919180107944855    0.128300270365084  0.0000
  O1     O1        0.411822505639652    0.266152407079102    0.876719352288480  0.0000
  O2     O2        0.082816461060723    0.819172123184393    0.901799488855571  0.0000
  O1     O1        0.358081098205520    0.932494984333056    0.875450969621137  0.0000
  O3     O3        0.117065359137402    0.152874918134619    0.867037935308445  0.0000
  O1     O1        0.582777198282648    0.801621432807202    0.140774115009341  0.0000
  O1     O1        0.921163352040608    0.262391394926230    0.131348497710194  0.0000
  O1     O1        0.512660886931326    0.003053651806657    0.952623476716307  0.0000
  O3     O3        0.980398696521961    0.052445080359117    0.942595760347488  0.0000
  O1     O1        0.160338517202385    0.489750649610620    0.347193530714577  0.0000
  O1     O1        0.337355038630195    0.571303977479039    0.344982668548251  0.0000
  O1     O1        0.835706469432683    0.553592749872862    0.658508280648863  0.0000
  O3     O3        0.643056214490670    0.473223011423826    0.674414622091039  0.0000
  O1     O1        0.266464522085197    0.251848618134932    0.279899893683784  0.0000
  O1     O1        0.229879788800262    0.813382291859277    0.291954714505283  0.0000
  O3     O3        0.752158941120117    0.252936600488799    0.719168116967305  0.0000
  O1     O1        0.724194252630260    0.781053981598512    0.723594758315142  0.0000
  O1     O1        0.133963223720675    0.273376601142456    0.126246959464285  0.0000
  O1     O1        0.357052662270607    0.794560495812342    0.130702291787560  0.0000
  O1     O1        0.868977835456729    0.383725933764731    0.887035288171786  0.0000
  O1     O1        0.607070705261651    0.673690584708227    0.890668105145615  0.0000
  O1     O1        0.856137205654986    0.776789447421085    0.879507378306460  0.0000
  O3     O3        0.643142524979762    0.294753856927496    0.888433735347594  0.0000
  O3     O3        0.113061408034127    0.672259474075763    0.129038466807249  0.0000
  O1     O1        0.381536971521924    0.385140176963817    0.127344215152227  0.0000
  O1     O1        0.659037409163494    0.492752924745250    0.113467304336375  0.0000
  O1     O1        0.840492892344738    0.571996786510299    0.108273579369996  0.0000
  O1     O1        0.341453611953495    0.579591488942249    0.908804412950056  0.0000
  O3     O3        0.144399111054730    0.510284176698756    0.916567778848130  0.0000
  O1     O1        0.766636259895580    0.249528092360112    0.065941190771869  0.0000
  O1     O1        0.729977161625270    0.804371326299952    0.039357815671276  0.0000
  O1     O1        0.259278544917984    0.275351028402176    0.961321032431383  0.0000
  O3     O3        0.223302400036216    0.790745028411827    0.983324217967271  0.0000
