data_c00959.vasp
_audit_creation_method             Generated by GULP
_audit_author_name                 Salvador R. G. Balestra
_symmetry_space_group_name_H-M     'P 1             '
_symmetry_Int_Tables_number        1

loop_
_symmetry_equiv_pos_site_id
_symmetry_equiv_pos_as_xyz
_cell_length_a                       17.5735
_cell_length_b                        7.8017
_cell_length_c                       10.2527
_cell_angle_alpha                   90.6851
_cell_angle_beta                    90.6620
_cell_angle_gamma                   91.1612

loop_
_atom_site_label
_atom_site_type_symbol
_atom_site_fract_x
_atom_site_fract_y
_atom_site_fract_z
_atom_site_charge
  Ge     Ge        0.052090000000021    0.000000000000000    0.372269999999958  0.0000
  Ge     Ge        0.442492252972356    0.054361951114191    0.374952815901898  0.0000
  Ge     Ge        0.944655768230132    0.039425125625233    0.621875421681544  0.0000
  Ge     Ge        0.548389451713817    0.993765571898629    0.127660336623959  0.0000
  Ge     Ge        0.941616178638150    0.054645372057885    0.124687217082251  0.0000
  Ge     Ge        0.438970039270695    0.050150544201540    0.877007084652012  0.0000
  Ge     Ge        0.167835418032091    0.293810972970784    0.266216796696091  0.0000
  Ge     Ge        0.320803669070569    0.769929571362888    0.256921126728358  0.0000
  Ge     Ge        0.843474379874562    0.355572153011625    0.687183825279405  0.0000
  Ge     Ge        0.636335654152173    0.683342677329708    0.691554602176042  0.0000
  Ge     Ge        0.817977907237457    0.759440755955566    0.691174942397594  0.0000
  Ge     Ge        0.661806267184671    0.279708360894487    0.693821545394112  0.0000
  Ge     Ge        0.348876502246064    0.366081406858155    0.257849184033594  0.0000
  Ge     Ge        0.669598564293820    0.276393342039154    0.011872458595326  0.0000
  Ge     Ge        0.818983114399290    0.769355182193348    0.008445089074578  0.0000
  Ge     Ge        0.140321191233488    0.678610690311626    0.939325581046832  0.0000
  Ge     Ge        0.320407925057768    0.752536469298412    0.941487519121233  0.0000
  Ge     Ge        0.159121212098017    0.275931016691156    0.952407965848495  0.0000
  Ge     Ge        0.639206898857138    0.678796192755932    0.008478415208423  0.0000
  Ge     Ge        0.849116388843471    0.365278315658386    0.005636415341059  0.0000
  Si     Si        0.540512276978139    0.998320969630775    0.627535721290343  0.0000
  Si     Si        0.042138612721842    0.985109807030882    0.878258282332671  0.0000
  Si     Si        0.143976649416562    0.689588569926470    0.251243578851776  0.0000
  Si     Si        0.337118967199209    0.353723210884238    0.947459809011483  0.0000
  O1     O1        0.121885474182930    0.155217565021446    0.367692699762784  0.0000
  O1     O1        0.362839288154471    0.927186791222342    0.350328377249227  0.0000
  O1     O1        0.909085430335220    0.240873554578320    0.601609006835517  0.0000
  O3     O3        0.569900884634566    0.805694509254004    0.609580960351529  0.0000
  O1     O1        0.869619080155353    0.897718556614151    0.597640322693699  0.0000
  O3     O3        0.609710210532500    0.131440011394702    0.601092548656229  0.0000
  O3     O3        0.081809707306727    0.798176077502654    0.326766196953330  0.0000
  O1     O1        0.419115966936644    0.261475027376135    0.339082281031086  0.0000
  O1     O1        0.021634807268953    0.992632783808008    0.531240449487987  0.0000
  O3     O3        0.468105688311966    0.036025587551982    0.538072038051150  0.0000
  O1     O1        0.972837858300209    0.051628483059846    0.283271741777560  0.0000
  O1     O1        0.519352974100655    0.993714008967675    0.286887614340057  0.0000
  O3     O3        0.972010387608629    0.025467882636989    0.786131964569946  0.0000
  O3     O3        0.515976902900444    0.028633620103919    0.777772929984119  0.0000
  O1     O1        0.625659884852572    0.128310584730888    0.107962727957700  0.0000
  O1     O1        0.863990099140769    0.920104403398247    0.105156753743503  0.0000
  O3     O3        0.392718410875964    0.243596556830633    0.858787314983196  0.0000
  O3     O3        0.073626958234146    0.794461645874900    0.854764549515613  0.0000
  O1     O1        0.375172013787197    0.883495340856998    0.847604770111877  0.0000
  O3     O3        0.111317920771384    0.122372526474821    0.859839772618850  0.0000
  O1     O1        0.571169667802364    0.785859045902786    0.091834399233964  0.0000
  O1     O1        0.918248801746750    0.261795123752960    0.090236986966997  0.0000
  O1     O1        0.472437809213482    0.056057919171521    0.034712141580862  0.0000
  O3     O3        0.016230715671635    0.990811460921729    0.028542204906134  0.0000
  O3     O3        0.155808943857717    0.505721208102485    0.316583093162706  0.0000
  O1     O1        0.342051151203592    0.571622855664868    0.316604769763402  0.0000
  O1     O1        0.830047430266560    0.555817517199407    0.627589540295697  0.0000
  O1     O1        0.645549462104486    0.480292534094041    0.629696575358353  0.0000
  O1     O1        0.263474665902540    0.257379175805098    0.272500916827962  0.0000
  O3     O3        0.223227154649452    0.797505791128453    0.253712308054377  0.0000
  O1     O1        0.757582079841028    0.243173510300525    0.686375865528086  0.0000
  O1     O1        0.721853362783052    0.794901249622043    0.688727650064197  0.0000
  O1     O1        0.130842125105554    0.260271980418583    0.111930375665745  0.0000
  O1     O1        0.352165321347980    0.785628576359361    0.099175566812161  0.0000
  O1     O1        0.874709479182778    0.382775135360376    0.845538536631747  0.0000
  O1     O1        0.608557133219934    0.655665968914090    0.849494915389888  0.0000
  O1     O1        0.849791911938901    0.779122973044392    0.850249611003757  0.0000
  O1     O1        0.635147372014325    0.267817606230865    0.854302726662684  0.0000
  O3     O3        0.118440204112248    0.653143026027249    0.102704474314150  0.0000
  O3     O3        0.370211477778438    0.381032497504908    0.093627900825702  0.0000
  O1     O1        0.654050486770734    0.480607010629545    0.072047875514786  0.0000
  O1     O1        0.835881586782365    0.566936958191365    0.067394843032017  0.0000
  O3     O3        0.326086387261762    0.540356527725616    0.888248799080776  0.0000
  O1     O1        0.141697962433535    0.471944927062461    0.883221803715279  0.0000
  O1     O1        0.765721613860333    0.245015135552586    0.011311935585500  0.0000
  O1     O1        0.722541478707082    0.799012318403666    0.009621385173237  0.0000
  O3     O3        0.256771373931727    0.250078922481839    0.956060588009636  0.0000
  O1     O1        0.224964116489397    0.790871699661282    0.929481535278296  0.0000
