data_c00991.vasp
_audit_creation_method             Generated by GULP
_audit_author_name                 Salvador R. G. Balestra
_symmetry_space_group_name_H-M     'P 1             '
_symmetry_Int_Tables_number        1

loop_
_symmetry_equiv_pos_site_id
_symmetry_equiv_pos_as_xyz
_cell_length_a                       17.6994
_cell_length_b                        7.8459
_cell_length_c                       10.3814
_cell_angle_alpha                   89.6796
_cell_angle_beta                    91.4509
_cell_angle_gamma                   89.8421

loop_
_atom_site_label
_atom_site_type_symbol
_atom_site_fract_x
_atom_site_fract_y
_atom_site_fract_z
_atom_site_charge
  Ge     Ge        0.052090000000021    0.000000000000000    0.372269999999958  0.0000
  Ge     Ge        0.440077881143259    0.021570299577829    0.358632086868225  0.0000
  Ge     Ge        0.941764655740383    0.007606243081377    0.616171327056210  0.0000
  Ge     Ge        0.549944115157520    0.032448169103964    0.116338274635780  0.0000
  Ge     Ge        0.941509198626938    0.999188573749960    0.117184831591966  0.0000
  Ge     Ge        0.441749587755627    0.026692580415000    0.861712059304863  0.0000
  Ge     Ge        0.167165717404319    0.288752502094035    0.254134344675581  0.0000
  Ge     Ge        0.819485644176549    0.288842746493415    0.686255083098473  0.0000
  Ge     Ge        0.658073374304611    0.752857028013430    0.688163002521666  0.0000
  Ge     Ge        0.839547643325154    0.694152340940477    0.685766431126827  0.0000
  Ge     Ge        0.637909839138298    0.345637994211059    0.687321185974831  0.0000
  Ge     Ge        0.150507336541426    0.690433307050908    0.263850914328607  0.0000
  Ge     Ge        0.640735928094772    0.349208592839011    0.000075973441305  0.0000
  Ge     Ge        0.847768500338374    0.685277934105010    0.999475217015259  0.0000
  Ge     Ge        0.339576996668298    0.337013295432894    0.939480081249507  0.0000
  Ge     Ge        0.140460181276679    0.705315690629367    0.949474156834543  0.0000
  Ge     Ge        0.321745566788897    0.749606940799456    0.943274789055073  0.0000
  Ge     Ge        0.157664652426525    0.297475668352170    0.941233665123076  0.0000
  Ge     Ge        0.667727473904692    0.754787074489208    0.001196457109119  0.0000
  Ge     Ge        0.821074970626985    0.280362149440338    0.998848689619345  0.0000
  Si     Si        0.541077752044570    0.034451902619888    0.611615748309130  0.0000
  Si     Si        0.041280331821556    0.017048782347679    0.872375397116850  0.0000
  Si     Si        0.328797714513765    0.732430034248917    0.247465748767349  0.0000
  Si     Si        0.345242489269386    0.332334596692716    0.242197665745282  0.0000
  O1     O1        0.124636538390818    0.138956148879835    0.345461561352669  0.0000
  O3     O3        0.377819431691323    0.853582968215635    0.339936098080817  0.0000
  O1     O1        0.871396437380551    0.156654278017802    0.592065766221597  0.0000
  O3     O3        0.606112845699574    0.893587294368497    0.592102929846765  0.0000
  O1     O1        0.901290310750829    0.810956023163557    0.596295840788146  0.0000
  O3     O3        0.575844771072058    0.222175187069310    0.595762728195926  0.0000
  O1     O1        0.090984858683176    0.800951666075699    0.359389333804913  0.0000
  O3     O3        0.400005564857358    0.221404902217154    0.333853492718049  0.0000
  O1     O1        0.019072465280196    0.032354560081972    0.524351465877494  0.0000
  O3     O3        0.468754036480166    0.010832384559161    0.519113880956804  0.0000
  O1     O1        0.974481081246636    0.025825825794793    0.272079010553582  0.0000
  O1     O1        0.519197238600142    0.004151907385479    0.270389055658351  0.0000
  O3     O3        0.970352895275777    0.033410856780931    0.776736748687387  0.0000
  O3     O3        0.514505240905784    0.006918025227674    0.758116887440278  0.0000
  O1     O1        0.577233435662465    0.239506842477397    0.089450615549974  0.0000
  O1     O1        0.913827383326004    0.792677299817946    0.090462642599283  0.0000
  O1     O1        0.401812116191068    0.226237284720288    0.849197562953821  0.0000
  O3     O3        0.077156001340102    0.828963465717373    0.860722370964603  0.0000
  O1     O1        0.369779088154953    0.880278630437976    0.843650333202299  0.0000
  O3     O3        0.104876865064138    0.159352805340605    0.847007311190268  0.0000
  O1     O1        0.626248931524489    0.900276449920288    0.097502765652346  0.0000
  O1     O1        0.865879318676900    0.133128484667564    0.094930965692179  0.0000
  O1     O1        0.477144096146730    0.980372796313702    0.013134687883090  0.0000
  O3     O3        0.014860816264472    0.050459626235626    0.017647426254592  0.0000
  O1     O1        0.152910358119326    0.485907677890548    0.319881445332008  0.0000
  O2     O2        0.339734701580229    0.531066282201623    0.284048317598366  0.0000
  O1     O1        0.828878500282599    0.493144049968382    0.626739453695340  0.0000
  O1     O1        0.644358521820645    0.549297449527124    0.629314451638265  0.0000
  O3     O3        0.262832440486603    0.248479364784742    0.246086984548640  0.0000
  O3     O3        0.240868031760026    0.776159183317628    0.261173138347856  0.0000
  O1     O1        0.724518261610041    0.245096750430411    0.685288854827375  0.0000
  O1     O1        0.753003506914889    0.796573967970786    0.684422937115895  0.0000
  O1     O1        0.131441855425664    0.290691709494945    0.099436035362954  0.0000
  O3     O3        0.354674612946886    0.762502298667096    0.102452029493158  0.0000
  O1     O1        0.851997965490515    0.274574590949483    0.843580792295748  0.0000
  O1     O1        0.631443542788418    0.762454758567679    0.845915860855956  0.0000
  O1     O1        0.874382413229860    0.678832312526331    0.841582930119968  0.0000
  O1     O1        0.607392016707142    0.357172217564436    0.842687354187338  0.0000
  O1     O1        0.114800074395989    0.700319814227912    0.108180195853774  0.0000
  O3     O3        0.374733016935812    0.321667435735583    0.097661379242854  0.0000
  O1     O1        0.653234427897278    0.550483169054324    0.058444617918314  0.0000
  O1     O1        0.837935949135050    0.482620248354855    0.057757073461141  0.0000
  O1     O1        0.332846467329316    0.543548850203119    0.890788513743953  0.0000
  O1     O1        0.143594479678386    0.503935535802122    0.887810216927188  0.0000
  O1     O1        0.725825271050218    0.242845981128920    0.998769128014402  0.0000
  O1     O1        0.762896008256195    0.792562485127244    0.000422378614005  0.0000
  O1     O1        0.251424106174407    0.245947138672316    0.931213668191218  0.0000
  O1     O1        0.227753846282434    0.799028894053960    0.941605979905157  0.0000
