data_c00953.vasp
_audit_creation_method             Generated by GULP
_audit_author_name                 Salvador R. G. Balestra
_symmetry_space_group_name_H-M     'P 1             '
_symmetry_Int_Tables_number        1

loop_
_symmetry_equiv_pos_site_id
_symmetry_equiv_pos_as_xyz
_cell_length_a                       17.7651
_cell_length_b                        7.8332
_cell_length_c                       10.4194
_cell_angle_alpha                   88.7879
_cell_angle_beta                    91.2087
_cell_angle_gamma                   89.9216

loop_
_atom_site_label
_atom_site_type_symbol
_atom_site_fract_x
_atom_site_fract_y
_atom_site_fract_z
_atom_site_charge
  Ge     Ge        0.052090000000021    0.000000000000000    0.372269999999958  0.0000
  Ge     Ge        0.447297563218245    0.031748226747909    0.396424590678397  0.0000
  Ge     Ge        0.943036655578029    0.006449483906631    0.620018698618597  0.0000
  Ge     Ge        0.556822801190261    0.024840968972952    0.153010084574482  0.0000
  Ge     Ge        0.948895110573599    0.997962262612304    0.111309828302046  0.0000
  Ge     Ge        0.446018700220889    0.033048824461715    0.902920178478310  0.0000
  Ge     Ge        0.171322345321898    0.282550354383877    0.292216277327047  0.0000
  Ge     Ge        0.330068086998123    0.741100808524974    0.285075398756102  0.0000
  Ge     Ge        0.822278450186515    0.288634423792244    0.726426018169393  0.0000
  Ge     Ge        0.660926146018665    0.756050098542321    0.730111179803367  0.0000
  Ge     Ge        0.841408770402058    0.695810427769426    0.726149585349964  0.0000
  Ge     Ge        0.643098018927974    0.345663154129524    0.729040102573379  0.0000
  Ge     Ge        0.150167569488678    0.687569918804499    0.294714107737500  0.0000
  Ge     Ge        0.849615604213958    0.680864831167459    0.039566552970525  0.0000
  Ge     Ge        0.344443237524872    0.345477773441546    0.976666052322096  0.0000
  Ge     Ge        0.143429771828893    0.697945327200784    0.981005559245439  0.0000
  Ge     Ge        0.324168077196676    0.754064474821861    0.974299671176554  0.0000
  Ge     Ge        0.164637319582199    0.288638273726877    0.979783418213101  0.0000
  Ge     Ge        0.669344675181079    0.738179315462418    0.040624195197890  0.0000
  Ge     Ge        0.825105669094295    0.277877024418587    0.038571621476061  0.0000
  Si     Si        0.544785069167570    0.039033324629897    0.652902421207830  0.0000
  Si     Si        0.048901609563175    0.010700312159206    0.867014895545448  0.0000
  Si     Si        0.346985391188621    0.337799198614166    0.282286141686892  0.0000
  Si     Si        0.648862601560790    0.336616771121657    0.034346663950305  0.0000
  O1     O1        0.125381669338724    0.142145107825154    0.389744966966045  0.0000
  O1     O1        0.384598513431065    0.867656765870792    0.380225534810274  0.0000
  O1     O1        0.873391492454004    0.154714859489999    0.634960919259824  0.0000
  O3     O3        0.609689450203620    0.898285005595302    0.633753789683312  0.0000
  O1     O1        0.904944251197604    0.807445552085005    0.636528960447261  0.0000
  O3     O3        0.578881070705863    0.228798419240549    0.640758921665671  0.0000
  O1     O1        0.089185185155651    0.798395232950836    0.387658960455768  0.0000
  O3     O3        0.406389970922126    0.229099592067607    0.366944528697059  0.0000
  O1     O1        0.977565548794247    0.030998721961798    0.467903383549617  0.0000
  O3     O3        0.474890885604279    0.020651905275850    0.557036542054830  0.0000
  O1     O1        0.020651272075664    0.034023311897501    0.215416627185965  0.0000
  O1     O1        0.526465166042265    0.014289505533969    0.307980577669812  0.0000
  O3     O3        0.020593826596792    0.032435182704309    0.720761101187665  0.0000
  O3     O3        0.517490013680339    0.006837488388611    0.798249522025309  0.0000
  O3     O3        0.591580935110639    0.227039784467839    0.118180667185376  0.0000
  O1     O1        0.915644478756361    0.792888632997401    0.125000672853767  0.0000
  O1     O1        0.409178716768082    0.235930561843227    0.892440735661182  0.0000
  O3     O3        0.077521676864495    0.817834334824376    0.895248159290123  0.0000
  O1     O1        0.372728589638029    0.892298353137583    0.879135599336821  0.0000
  O3     O3        0.116407309589545    0.143220132571248    0.888635991289705  0.0000
  O1     O1        0.624060026519449    0.868665643058838    0.142226313473059  0.0000
  O1     O1        0.872245468381556    0.130264127923305    0.130648491613521  0.0000
  O1     O1        0.480899974000079    0.987080193694850    0.054767967470509  0.0000
  O3     O3        0.979002845816305    0.047828922376616    0.957226309854383  0.0000
  O1     O1        0.158029964029737    0.483071214603378    0.351845653960384  0.0000
  O3     O3        0.338024701625167    0.527450497527794    0.334397383225833  0.0000
  O1     O1        0.830492433282573    0.495024764487883    0.667968134604661  0.0000
  O1     O1        0.647271812793484    0.551844889817767    0.674118292117263  0.0000
  O3     O3        0.266887324819322    0.240729543957557    0.286022927383649  0.0000
  O1     O1        0.236236985375410    0.789312812698479    0.294602214498052  0.0000
  O1     O1        0.727894843622492    0.242235102367465    0.720528905734576  0.0000
  O1     O1        0.755496643316590    0.799153191372701    0.724041454988053  0.0000
  O1     O1        0.137288442968369    0.276954247734338    0.136453553865749  0.0000
  O1     O1        0.358099630127596    0.765988069868579    0.130087368734087  0.0000
  O1     O1        0.854304561542519    0.275229983102728    0.882345353873575  0.0000
  O1     O1        0.633881310316705    0.765613858491216    0.887247506707719  0.0000
  O1     O1        0.875344048170700    0.681595944280018    0.881296982306420  0.0000
  O3     O3        0.617030901189723    0.350875016671098    0.888700926143470  0.0000
  O1     O1        0.116449256398661    0.687625733353424    0.138175932087875  0.0000
  O3     O3        0.374678908803336    0.347713170300683    0.136447454902307  0.0000
  O3     O3        0.659418460483686    0.524928274269771    0.089002091266956  0.0000
  O1     O1        0.843407018652032    0.477024117372431    0.098826628451215  0.0000
  O1     O1        0.335480101710984    0.549574365192071    0.919602148726335  0.0000
  O1     O1        0.148714465989622    0.494898216310773    0.923573817776409  0.0000
  O3     O3        0.729140317389469    0.240017343641174    0.035499545182472  0.0000
  O1     O1        0.763595557449541    0.782009670135129    0.043363587373640  0.0000
  O1     O1        0.258745988815963    0.244149708666157    0.970081416568312  0.0000
  O1     O1        0.229514038007678    0.796501319931748    0.973838800601959  0.0000
