data_c00946.vasp
_audit_creation_method             Generated by GULP
_audit_author_name                 Salvador R. G. Balestra
_symmetry_space_group_name_H-M     'P 1             '
_symmetry_Int_Tables_number        1

loop_
_symmetry_equiv_pos_site_id
_symmetry_equiv_pos_as_xyz
_cell_length_a                       17.5281
_cell_length_b                        7.8124
_cell_length_c                       10.2750
_cell_angle_alpha                   88.5263
_cell_angle_beta                    91.0245
_cell_angle_gamma                   91.1878

loop_
_atom_site_label
_atom_site_type_symbol
_atom_site_fract_x
_atom_site_fract_y
_atom_site_fract_z
_atom_site_charge
  Ge     Ge        0.052090000000021    0.000000000000000    0.372269999999958  0.0000
  Ge     Ge        0.443870585576911    0.050640765789093    0.369406236845367  0.0000
  Ge     Ge        0.946407354295476    0.063269228693659    0.620954687663623  0.0000
  Ge     Ge        0.554114588416449    0.997022691747551    0.128018674063980  0.0000
  Ge     Ge        0.943117531620385    0.056306594780553    0.119275153972794  0.0000
  Ge     Ge        0.447333289962158    0.070935603092499    0.871777123342235  0.0000
  Ge     Ge        0.173119051119878    0.285139282549494    0.259986452545651  0.0000
  Ge     Ge        0.325532909578485    0.759306864272974    0.260428244194451  0.0000
  Ge     Ge        0.845420810313037    0.373894154689926    0.688789333225981  0.0000
  Ge     Ge        0.639922550600745    0.700086686886800    0.694707875351658  0.0000
  Ge     Ge        0.822013548519951    0.778366244169824    0.693598120994987  0.0000
  Ge     Ge        0.664555926760863    0.294991217650477    0.694265585264240  0.0000
  Ge     Ge        0.142603476689503    0.684256212732274    0.261554468639091  0.0000
  Ge     Ge        0.673344527199781    0.283090043620202    0.011019037442174  0.0000
  Ge     Ge        0.825419825006498    0.763677002861942    0.007850885928345  0.0000
  Ge     Ge        0.344333831540002    0.376026569225340    0.937454495799579  0.0000
  Ge     Ge        0.142344170652991    0.698710117273789    0.945634079508553  0.0000
  Ge     Ge        0.323646839904861    0.781516780423847    0.947652099619404  0.0000
  Ge     Ge        0.164399378850584    0.294494395324440    0.943623918200068  0.0000
  Ge     Ge        0.643341706130122    0.684195272906283    0.011125381331873  0.0000
  Si     Si        0.545210489651470    0.014852487340267    0.621686073195509  0.0000
  Si     Si        0.045240883694078    0.007623080811670    0.875821746816337  0.0000
  Si     Si        0.350546717805285    0.362890036169840    0.248448765442580  0.0000
  Si     Si        0.850231622029697    0.366882864759787    0.998907395889399  0.0000
  O1     O1        0.132838165796900    0.124404119906404    0.351569870746429  0.0000
  O1     O1        0.373139456833428    0.897688726324088    0.360808740839243  0.0000
  O1     O1        0.911406058622390    0.266443484329546    0.603305632619342  0.0000
  O3     O3        0.575730666146136    0.824194892809887    0.604890767808650  0.0000
  O1     O1        0.872028442684442    0.920340514653111    0.596851326833552  0.0000
  O3     O3        0.613369331119857    0.153172644522334    0.598590385123229  0.0000
  O1     O1        0.075711069269301    0.792142997492327    0.345352565562981  0.0000
  O3     O3        0.413913333523730    0.253750546895292    0.325354658881943  0.0000
  O1     O1        0.023232182166251    0.022799773500589    0.530109239763473  0.0000
  O3     O3        0.472454392120361    0.054871806834901    0.532406666493619  0.0000
  O1     O1        0.975984385923907    0.064668057687129    0.277084667070824  0.0000
  O1     O1        0.523269322330060    0.001297290252340    0.285146689637213  0.0000
  O3     O3        0.973007483941334    0.042348855183594    0.785042352262749  0.0000
  O3     O3        0.521838747058070    0.031898766646733    0.772799676593384  0.0000
  O1     O1        0.634369042539049    0.125038360605299    0.106887617257824  0.0000
  O1     O1        0.872931920022954    0.901254555429139    0.109179333661330  0.0000
  O1     O1        0.410101937903116    0.272154847229011    0.850097565582381  0.0000
  O3     O3        0.079749811928489    0.821488868530392    0.852688471785918  0.0000
  O1     O1        0.373809960927821    0.923874204969165    0.852764487036424  0.0000
  O3     O3        0.110721459294497    0.153050108549287    0.852394524179886  0.0000
  O1     O1        0.577054950774224    0.789589047194742    0.096357146459135  0.0000
  O3     O3        0.913377541330223    0.260613120702680    0.078047016720649  0.0000
  O1     O1        0.480480048312054    0.065596099823891    0.030170279215442  0.0000
  O3     O3        0.020511362906473    0.007199550254093    0.026642107955738  0.0000
  O1     O1        0.153577998574690    0.480210129787463    0.324182814538178  0.0000
  O3     O3        0.340363456389436    0.547504903133858    0.310557844390699  0.0000
  O1     O1        0.833966166347551    0.577679872467880    0.630828970232718  0.0000
  O1     O1        0.649182492517129    0.500478982878843    0.633692765700039  0.0000
  O3     O3        0.270658166546197    0.256711908001165    0.253969020184738  0.0000
  O1     O1        0.229400133030904    0.792110428334543    0.265182602837269  0.0000
  O1     O1        0.760496638123432    0.258995954996733    0.684627883796454  0.0000
  O1     O1        0.725791075227633    0.811788879081679    0.694919938336021  0.0000
  O1     O1        0.137443286337103    0.278528795077264    0.103338547660743  0.0000
  O1     O1        0.358513641483112    0.795260994106489    0.105507191545411  0.0000
  O3     O3        0.874698342772168    0.395104350676954    0.850040875318643  0.0000
  O1     O1        0.611294396634526    0.671194300533970    0.852373577000051  0.0000
  O1     O1        0.855922600854330    0.794203814513640    0.851515166095463  0.0000
  O1     O1        0.637469348804680    0.276046466235137    0.854189194052347  0.0000
  O1     O1        0.112434350752349    0.667045854825825    0.102623440110788  0.0000
  O3     O3        0.373611374917647    0.393701116402654    0.099387027281040  0.0000
  O1     O1        0.654397725273641    0.480056929672788    0.072583964695744  0.0000
  O3     O3        0.839718519808106    0.551892186884053    0.059592744003834  0.0000
  O1     O1        0.333381139117527    0.581220103411304    0.882882625090490  0.0000
  O1     O1        0.151543070587672    0.500603951445425    0.882261715915915  0.0000
  O3     O3        0.771067067431217    0.257859610547828    0.003064296563017  0.0000
  O1     O1        0.729165609289431    0.795555127934215    0.013223095301402  0.0000
  O1     O1        0.260221839920002    0.257993945674500    0.933106203563693  0.0000
  O1     O1        0.227412205490198    0.813455388719333    0.951840698751513  0.0000
