data_c00978.vasp
_audit_creation_method             Generated by GULP
_audit_author_name                 Salvador R. G. Balestra
_symmetry_space_group_name_H-M     'P 1             '
_symmetry_Int_Tables_number        1

loop_
_symmetry_equiv_pos_site_id
_symmetry_equiv_pos_as_xyz
_cell_length_a                       17.5283
_cell_length_b                        7.8225
_cell_length_c                       10.1731
_cell_angle_alpha                   89.7091
_cell_angle_beta                    90.3565
_cell_angle_gamma                   91.6922

loop_
_atom_site_label
_atom_site_type_symbol
_atom_site_fract_x
_atom_site_fract_y
_atom_site_fract_z
_atom_site_charge
  Ge     Ge        0.052090000000021    0.000000000000000    0.372269999999958  0.0000
  Ge     Ge        0.448234355630032    0.065280123948634    0.372477074841686  0.0000
  Ge     Ge        0.944331527807675    0.066517850396783    0.618667142155641  0.0000
  Ge     Ge        0.549327860430300    0.004278276571916    0.114194950746279  0.0000
  Ge     Ge        0.957948673688189    0.067580435601290    0.105745079250192  0.0000
  Ge     Ge        0.444599613903455    0.062424848647061    0.856035506398717  0.0000
  Ge     Ge        0.172780523502604    0.286114710516694    0.289190600530379  0.0000
  Ge     Ge        0.327371501383472    0.781326694341560    0.282858776695796  0.0000
  Ge     Ge        0.854239681757818    0.387336238809163    0.725903054795582  0.0000
  Ge     Ge        0.645674803853430    0.709230894216215    0.731386207061555  0.0000
  Ge     Ge        0.669918107790282    0.310449638067036    0.724908613804487  0.0000
  Ge     Ge        0.147165620565167    0.690967677013305    0.286968187089578  0.0000
  Ge     Ge        0.351826138411344    0.374101150961760    0.288272566604056  0.0000
  Ge     Ge        0.674937958462967    0.292999221699193    0.043708041867295  0.0000
  Ge     Ge        0.828362151912470    0.779874101528125    0.043224042541223  0.0000
  Ge     Ge        0.143833278052465    0.692450629447645    0.969241306235565  0.0000
  Ge     Ge        0.328128226206078    0.766236932619497    0.966892089591375  0.0000
  Ge     Ge        0.171562742975153    0.290939869283332    0.970044272105683  0.0000
  Ge     Ge        0.649259418851997    0.694458750241500    0.052889849890736  0.0000
  Ge     Ge        0.855970952387765    0.377662442927249    0.043805984637969  0.0000
  Si     Si        0.553945864886445    0.021817388977494    0.616585055265581  0.0000
  Si     Si        0.057028249367437    0.006208386035796    0.852926153778952  0.0000
  Si     Si        0.825780998957680    0.779425304621911    0.729858761338066  0.0000
  Si     Si        0.351330658233568    0.368427222158513    0.976149489941318  0.0000
  O1     O1        0.124148550717012    0.151835030168702    0.393952354667735  0.0000
  O1     O1        0.374438536961924    0.917329961489810    0.388766371006452  0.0000
  O1     O1        0.917347336995248    0.273335494128488    0.634788669949724  0.0000
  O3     O3        0.578750416484783    0.831662964748819    0.653762495341545  0.0000
  O3     O3        0.867782286563942    0.930129672116671    0.649416809383171  0.0000
  O3     O3        0.624865564958088    0.152632041662700    0.632755070091257  0.0000
  O1     O1        0.086272138785684    0.798071456288151    0.387109622823734  0.0000
  O1     O1        0.416260873170271    0.269191794056697    0.384627967346282  0.0000
  O1     O1        0.971710260830204    0.036236838630768    0.458315756739831  0.0000
  O3     O3        0.527655051866900    0.023443867347713    0.464591855447242  0.0000
  O1     O1        0.031249246078009    0.022052325898548    0.205682633310856  0.0000
  O1     O1        0.474072605050172    0.045697524177160    0.209452169452887  0.0000
  O3     O3        0.027421937669091    0.019809386531663    0.703682422731994  0.0000
  O3     O3        0.479433929061959    0.076597287423910    0.696578908086768  0.0000
  O1     O1        0.624626132941921    0.148501171410232    0.136294997134193  0.0000
  O1     O1        0.883066364425589    0.922617311303679    0.128475304790987  0.0000
  O3     O3        0.410932222126863    0.262376145470584    0.893794144120852  0.0000
  O3     O3        0.078757246499365    0.811292325750244    0.882327620476703  0.0000
  O1     O1        0.373395330260451    0.907410473414050    0.862871594030379  0.0000
  O3     O3        0.131071282421199    0.129770224629079    0.875645813501909  0.0000
  O1     O1        0.583399256739778    0.802205098005372    0.140139090329749  0.0000
  O1     O1        0.922291310610715    0.267272640060316    0.131219654566860  0.0000
  O1     O1        0.520584481948235    0.012557516718716    0.951705781973347  0.0000
  O3     O3        0.987373733020708    0.063439211579251    0.942876554634847  0.0000
  O1     O1        0.162312160249563    0.491887904402375    0.346792648858249  0.0000
  O1     O1        0.339502735473650    0.575804944902232    0.342161187219404  0.0000
  O3     O3        0.843716331834352    0.595072348699444    0.668252857468308  0.0000
  O1     O1        0.649385839727199    0.509528695797320    0.663182189673831  0.0000
  O1     O1        0.268733818105352    0.250644545510338    0.290383475952173  0.0000
  O1     O1        0.231124859077272    0.812598383764643    0.277960333527193  0.0000
  O1     O1        0.766377151073272    0.284849347360629    0.719410929325970  0.0000
  O3     O3        0.735450888698948    0.808617297551166    0.726169621540758  0.0000
  O1     O1        0.139632811461739    0.274451495715426    0.128838443715177  0.0000
  O1     O1        0.361766879588755    0.798328945396333    0.124218948938959  0.0000
  O1     O1        0.887065253939417    0.393333296466412    0.883714994579401  0.0000
  O1     O1        0.620146411635031    0.678178878046433    0.891069814896721  0.0000
  O3     O3        0.855608090570241    0.782144762967138    0.879350672683726  0.0000
  O1     O1        0.640290316959534    0.289941486788367    0.884582101030395  0.0000
  O1     O1        0.112896306309968    0.672705533313602    0.128330728847249  0.0000
  O3     O3        0.381065094219070    0.387984364152163    0.125309193807074  0.0000
  O1     O1        0.663261612787408    0.493788468334148    0.110825650544121  0.0000
  O1     O1        0.843033879794046    0.576582351117598    0.104750167617781  0.0000
  O3     O3        0.342493758387779    0.557267927389602    0.916446089087463  0.0000
  O1     O1        0.149767055478448    0.488656126306800    0.907757094533070  0.0000
  O1     O1        0.771000188079662    0.259548936850615    0.041172778261170  0.0000
  O1     O1        0.733307827958890    0.816492554653933    0.054407575005488  0.0000
  O3     O3        0.269455401205568    0.268397442203661    0.974033756494944  0.0000
  O1     O1        0.231665008873279    0.794718039690216    0.965285427681526  0.0000
