data_c00934.vasp
_audit_creation_method             Generated by GULP
_audit_author_name                 Salvador R. G. Balestra
_symmetry_space_group_name_H-M     'P 1             '
_symmetry_Int_Tables_number        1

loop_
_symmetry_equiv_pos_site_id
_symmetry_equiv_pos_as_xyz
_cell_length_a                       17.5432
_cell_length_b                        7.8305
_cell_length_c                       10.2211
_cell_angle_alpha                   89.5752
_cell_angle_beta                    90.9719
_cell_angle_gamma                   88.4164

loop_
_atom_site_label
_atom_site_type_symbol
_atom_site_fract_x
_atom_site_fract_y
_atom_site_fract_z
_atom_site_charge
  Ge     Ge        0.052090000000021    0.000000000000000    0.372269999999958  0.0000
  Ge     Ge        0.450269090047401    0.935781535738651    0.369810436054110  0.0000
  Ge     Ge        0.943032203916520    0.946436424350667    0.619077740941036  0.0000
  Ge     Ge        0.550555556349046    0.991353430390876    0.109061432996402  0.0000
  Ge     Ge        0.953278981758531    0.937874711516120    0.109149172847232  0.0000
  Ge     Ge        0.438755908792705    0.949005295366855    0.856445088418762  0.0000
  Ge     Ge        0.147545284286684    0.311957706014441    0.291734809226134  0.0000
  Ge     Ge        0.351760391717375    0.629794985283974    0.287738199743049  0.0000
  Ge     Ge        0.820863858336700    0.233102408283355    0.726266586065064  0.0000
  Ge     Ge        0.666959969731622    0.708732196401935    0.734114859682332  0.0000
  Ge     Ge        0.848361684159115    0.633053795620653    0.729635465015864  0.0000
  Ge     Ge        0.636729988972742    0.308174451207520    0.731878060503522  0.0000
  Ge     Ge        0.172730751924830    0.715574370841257    0.291688966959660  0.0000
  Ge     Ge        0.327481729517658    0.222416639255933    0.283294663790289  0.0000
  Ge     Ge        0.645136512495105    0.310836648849666    0.046598207387651  0.0000
  Ge     Ge        0.849275891047550    0.627123175632134    0.052149803603675  0.0000
  Ge     Ge        0.324004525682522    0.243256307190721    0.968889666014500  0.0000
  Ge     Ge        0.167339331577524    0.717002394612152    0.973944868259548  0.0000
  Ge     Ge        0.140025974235926    0.316334084789587    0.975109763483936  0.0000
  Ge     Ge        0.827106975144595    0.227948264614856    0.042097577310501  0.0000
  Si     Si        0.547298380521925    0.997931700800357    0.621623567303597  0.0000
  Si     Si        0.052020512729426    0.004102476901531    0.859679810099775  0.0000
  Si     Si        0.347019059218213    0.640825033307764    0.976904064104948  0.0000
  Si     Si        0.672207749235145    0.702307698811589    0.048260103868295  0.0000
  O1     O1        0.086562544731619    0.201476355669301    0.388677461566765  0.0000
  O1     O1        0.417043380068057    0.732740776249292    0.382797326657879  0.0000
  O1     O1        0.865841950597730    0.081324097904977    0.633473208521889  0.0000
  O3     O3        0.619262905609437    0.876003662409506    0.657841461453896  0.0000
  O1     O1        0.917005105826805    0.741424728579392    0.648938530940307  0.0000
  O3     O3        0.569034685949373    0.192700091664312    0.647401195796470  0.0000
  O1     O1        0.124744095469175    0.849780638793664    0.394315365669834  0.0000
  O1     O1        0.376972181374852    0.084157894465767    0.385095159565249  0.0000
  O1     O1        0.973417673667546    0.961187399422897    0.460037772580762  0.0000
  O3     O3        0.527536083330556    0.975765452888581    0.468360443762831  0.0000
  O1     O1        0.028038447518280    0.980614878895093    0.207447971900474  0.0000
  O1     O1        0.477765395102594    0.950724469178324    0.208788672925190  0.0000
  O3     O3        0.023078603056724    0.001414572607150    0.710081667421671  0.0000
  O3     O3        0.471516428119864    0.944071517358888    0.696843974624725  0.0000
  O1     O1        0.586466930286564    0.190474430227574    0.139189357320502  0.0000
  O1     O1        0.916301234763434    0.738840870151552    0.135006163469818  0.0000
  O1     O1        0.368241415469349    0.103901243100762    0.865297057946832  0.0000
  O3     O3        0.126090636359627    0.879828921446999    0.880630706222801  0.0000
  O3     O3        0.405174341204159    0.748495455947195    0.892854817457223  0.0000
  O3     O3        0.073020414067131    0.197814803954863    0.893291921146146  0.0000
  O3     O3        0.624533134582476    0.839742204076648    0.129180979833688  0.0000
  O1     O1        0.878410511349456    0.080172455326855    0.131581143198765  0.0000
  O1     O1        0.517029810649071    0.992429489429959    0.949966123287619  0.0000
  O3     O3        0.982958816736795    0.940416468648977    0.947334352904560  0.0000
  O1     O1        0.162941276528359    0.509961962967849    0.351518349331930  0.0000
  O1     O1        0.340132033975932    0.427041396115666    0.341310222711655  0.0000
  O1     O1        0.837286174086393    0.433962918762369    0.664857630878229  0.0000
  O1     O1        0.644558286324828    0.512839515850502    0.670759656582085  0.0000
  O1     O1        0.231261874572328    0.190749793609971    0.282081119703924  0.0000
  O1     O1        0.268487538283620    0.751765113281349    0.291267283572605  0.0000
  O1     O1        0.724315986669565    0.205171646041421    0.725653704104559  0.0000
  O1     O1        0.762052130477155    0.743714560153649    0.718642946565607  0.0000
  O1     O1        0.112190990188085    0.335645231138861    0.134206405122817  0.0000
  O3     O3        0.378736291445941    0.619660762077029    0.124757524668351  0.0000
  O1     O1        0.857363404550534    0.216364602232891    0.882779240418170  0.0000
  O3     O3        0.643357412624817    0.703157097274022    0.897679522365123  0.0000
  O1     O1        0.874128213876675    0.609252497452077    0.890832117126092  0.0000
  O1     O1        0.607918052072153    0.323870175246538    0.890271706588165  0.0000
  O1     O1        0.137640121411740    0.729592845555965    0.132702742937969  0.0000
  O1     O1        0.359573321957893    0.207593632386776    0.124696369339371  0.0000
  O3     O3        0.659145863030235    0.512718902094701    0.107445022493966  0.0000
  O1     O1        0.842834624537079    0.424987683548332    0.111434719663323  0.0000
  O3     O3        0.337630036672314    0.452752063103746    0.918227743375372  0.0000
  O1     O1        0.144885415151719    0.520367321922129    0.912219189297739  0.0000
  O1     O1        0.731015107320705    0.199797885439009    0.038789427386408  0.0000
  O3     O3        0.761763411670833    0.738308658076118    0.055087525184382  0.0000
  O1     O1        0.227647982063265    0.214266145866406    0.968656168012596  0.0000
  O3     O3        0.265203708648062    0.740066998989804    0.976155765382519  0.0000
