data_c00941.vasp
_audit_creation_method             Generated by GULP
_audit_author_name                 Salvador R. G. Balestra
_symmetry_space_group_name_H-M     'P 1             '
_symmetry_Int_Tables_number        1

loop_
_symmetry_equiv_pos_site_id
_symmetry_equiv_pos_as_xyz
_cell_length_a                       17.5816
_cell_length_b                        7.8031
_cell_length_c                       10.2693
_cell_angle_alpha                   90.0815
_cell_angle_beta                    91.1071
_cell_angle_gamma                   91.1173

loop_
_atom_site_label
_atom_site_type_symbol
_atom_site_fract_x
_atom_site_fract_y
_atom_site_fract_z
_atom_site_charge
  Ge     Ge        0.052090000000021    0.000000000000000    0.372269999999958  0.0000
  Ge     Ge        0.450101335708188    0.050766816073025    0.403570841325599  0.0000
  Ge     Ge        0.944005396884524    0.061066246028855    0.619113390224306  0.0000
  Ge     Ge        0.556390852273566    0.013615945023801    0.159318300494705  0.0000
  Ge     Ge        0.952894615721312    0.075168945850723    0.110397136187005  0.0000
  Ge     Ge        0.442884477582533    0.067221565907651    0.911462233994911  0.0000
  Ge     Ge        0.175084021288457    0.279856987408020    0.292158405672942  0.0000
  Ge     Ge        0.326849202463937    0.767990279071916    0.292004699360130  0.0000
  Ge     Ge        0.846789500156860    0.372464517194047    0.733401072800671  0.0000
  Ge     Ge        0.641283465672239    0.698757997294631    0.728066110657085  0.0000
  Ge     Ge        0.821308681880894    0.776142467536725    0.723569942186668  0.0000
  Ge     Ge        0.665176094188061    0.293467506392300    0.736491234444145  0.0000
  Ge     Ge        0.146593296020826    0.683911456503429    0.296529483528839  0.0000
  Ge     Ge        0.354231863047545    0.363004106159879    0.282971274269526  0.0000
  Ge     Ge        0.672024500354514    0.310102167915124    0.052233772790868  0.0000
  Ge     Ge        0.825551645885094    0.790307138142482    0.040070837181816  0.0000
  Ge     Ge        0.141218831321402    0.696221339504972    0.980620783574816  0.0000
  Ge     Ge        0.323710204310676    0.770032103266431    0.978225371832327  0.0000
  Ge     Ge        0.166757084859724    0.292686262132068    0.975481658545529  0.0000
  Ge     Ge        0.852476956625268    0.389986450818804    0.052468161495029  0.0000
  Si     Si        0.544891056269106    0.012757171408111    0.663889032585737  0.0000
  Si     Si        0.051328664593255    0.007574876320558    0.862538262369631  0.0000
  Si     Si        0.343876134504736    0.375035872688831    0.972687856074321  0.0000
  Si     Si        0.649068611033540    0.707161585650278    0.038307386510269  0.0000
  O1     O1        0.127737289917824    0.141264646906190    0.391622323364328  0.0000
  O1     O1        0.373437229103712    0.913957535444954    0.389999032775399  0.0000
  O1     O1        0.914052216525941    0.263657606461083    0.649688879935661  0.0000
  O3     O3        0.572185424387806    0.817711606857342    0.649633577694024  0.0000
  O1     O1        0.869263301546264    0.919482246313675    0.628667621776663  0.0000
  O3     O3        0.615738934053056    0.143211854884367    0.642738305381750  0.0000
  O1     O1        0.083967983309396    0.794909187312317    0.390000486592376  0.0000
  O1     O1        0.426004751738154    0.255202318999785    0.358206715487838  0.0000
  O1     O1        0.975714405427604    0.050356808448913    0.461602532556574  0.0000
  O3     O3        0.475647985791950    0.051912792377886    0.567779878702042  0.0000
  O1     O1        0.025556177035330    0.019093493448126    0.208915983577942  0.0000
  O1     O1        0.526832672600190    0.988952241762746    0.316649033597084  0.0000
  O3     O3        0.022880740762866    0.007233986588522    0.713193421008929  0.0000
  O3     O3        0.518746519914868    0.042493895135706    0.812023142750849  0.0000
  O1     O1        0.625062909860138    0.172259067155256    0.153335453698049  0.0000
  O1     O1        0.874053366324674    0.942329207410218    0.127583565351541  0.0000
  O3     O3        0.401813329518608    0.266556364734871    0.889334126571767  0.0000
  O3     O3        0.073540558797616    0.814404911894389    0.899057620665475  0.0000
  O1     O1        0.374735669512425    0.909373410096389    0.884656919097102  0.0000
  O3     O3        0.124017835668011    0.134655783258470    0.880853520345504  0.0000
  O3     O3        0.587337827308243    0.813651863073508    0.113383933503337  0.0000
  O1     O1        0.921170986862737    0.279656900315617    0.135487733868861  0.0000
  O1     O1        0.477184019258314    0.064620250957521    0.068898733051259  0.0000
  O3     O3        0.982001962110394    0.069975480517652    0.949102917021866  0.0000
  O1     O1        0.161898699210956    0.483451739680185    0.354083474049768  0.0000
  O1     O1        0.343001091732723    0.563029731642573    0.347557388542915  0.0000
  O1     O1        0.833695328765000    0.571161844995983    0.666774360108168  0.0000
  O1     O1        0.647537471924600    0.494021256169899    0.671392430701971  0.0000
  O1     O1        0.270958610291796    0.243740909745422    0.293470527594129  0.0000
  O1     O1        0.230793532131257    0.800876227413353    0.291635760423850  0.0000
  O1     O1        0.761271576599744    0.259693220323359    0.731093036103008  0.0000
  O1     O1        0.725350821200132    0.811707783256134    0.716414862083773  0.0000
  O1     O1        0.139162980614807    0.270837394382218    0.134194594276463  0.0000
  O1     O1        0.358170833190733    0.792805295091447    0.135074025054224  0.0000
  O1     O1        0.876297613733904    0.405065247555471    0.890938880975119  0.0000
  O3     O3        0.620421056387174    0.673410162213314    0.891089278735649  0.0000
  O1     O1        0.854456819395580    0.799293372525552    0.881135537260179  0.0000
  O1     O1        0.637827256335799    0.280112174706508    0.896232596296055  0.0000
  O1     O1        0.113367487963035    0.668096640419396    0.138038396759889  0.0000
  O3     O3        0.374204608921738    0.398474880748240    0.120835090610117  0.0000
  O3     O3        0.661781524112009    0.522224767644965    0.102522922154425  0.0000
  O1     O1        0.844622847634294    0.594003012918100    0.109157662460074  0.0000
  O3     O3        0.332696414107707    0.563445179952672    0.915605095993220  0.0000
  O1     O1        0.145888134540323    0.492792195175167    0.916477059701848  0.0000
  O1     O1        0.767775246274867    0.275380596435429    0.058521184715804  0.0000
  O3     O3        0.727897354441551    0.817408979792164    0.038726792037426  0.0000
  O3     O3        0.264249185506268    0.268532138479197    0.975688315444518  0.0000
  O1     O1        0.227503351200954    0.803409730790469    0.975968495908970  0.0000
