data_c00915.vasp
_audit_creation_method             Generated by GULP
_audit_author_name                 Salvador R. G. Balestra
_symmetry_space_group_name_H-M     'P 1             '
_symmetry_Int_Tables_number        1

loop_
_symmetry_equiv_pos_site_id
_symmetry_equiv_pos_as_xyz
_cell_length_a                       17.7703
_cell_length_b                        7.8763
_cell_length_c                       10.3020
_cell_angle_alpha                   90.8379
_cell_angle_beta                    90.7165
_cell_angle_gamma                   90.4392

loop_
_atom_site_label
_atom_site_type_symbol
_atom_site_fract_x
_atom_site_fract_y
_atom_site_fract_z
_atom_site_charge
  Ge     Ge        0.052090000000021    0.000000000000000    0.372269999999958  0.0000
  Ge     Ge        0.442710645447316    0.024119263508835    0.411230010339875  0.0000
  Ge     Ge        0.940750424958291    0.973641498967637    0.618295502232145  0.0000
  Ge     Ge        0.553282588306333    0.003718701841247    0.164639436896341  0.0000
  Ge     Ge        0.942858251031585    0.985000899627610    0.120384232396833  0.0000
  Ge     Ge        0.444668143892164    0.006501272980280    0.912808603506123  0.0000
  Ge     Ge        0.047767770243518    0.982681957763501    0.872210287744922  0.0000
  Ge     Ge        0.164601499792647    0.298083423376041    0.312551701217060  0.0000
  Ge     Ge        0.821533488240039    0.260093614828459    0.731992380936424  0.0000
  Ge     Ge        0.656673426635880    0.714267699941966    0.735849829557177  0.0000
  Ge     Ge        0.838063289380579    0.667329371071320    0.731918666060067  0.0000
  Ge     Ge        0.641655676526377    0.305678526696407    0.734096470161292  0.0000
  Ge     Ge        0.348641740901887    0.341596426373575    0.311013950270483  0.0000
  Ge     Ge        0.844393721507694    0.664733097892342    0.047964023901210  0.0000
  Ge     Ge        0.346861294957350    0.321421864854669    0.996228794004411  0.0000
  Ge     Ge        0.145192062822006    0.676494215498682    0.991005740421004  0.0000
  Ge     Ge        0.323960787437477    0.726340133051880    0.983592732482657  0.0000
  Ge     Ge        0.166272817377308    0.267601076562358    0.998280650173784  0.0000
  Ge     Ge        0.663612763581630    0.711038009788006    0.049092839637205  0.0000
  Ge     Ge        0.822580858850880    0.262401544143966    0.047570319555625  0.0000
  Si     Si        0.543135905671919    0.995163113669053    0.660187382876538  0.0000
  Si     Si        0.330334541816152    0.734412439872704    0.291225021858950  0.0000
  Si     Si        0.153143428273480    0.691560514661410    0.298754296970594  0.0000
  Si     Si        0.645962913516122    0.310650843109957    0.042635203836283  0.0000
  O1     O1        0.110808655833846    0.169207206703406    0.407509959993461  0.0000
  O3     O3        0.369112704769767    0.887831716661634    0.369462952460484  0.0000
  O1     O1        0.873288236313185    0.125553156770585    0.638596683003682  0.0000
  O3     O3        0.605135193702420    0.849858566229341    0.638897303351407  0.0000
  O1     O1        0.900640522268859    0.778072295083982    0.640618992215290  0.0000
  O3     O3        0.579677550069698    0.181312402016203    0.642837988872711  0.0000
  O3     O3        0.106482672926849    0.818771557219180    0.387381291290435  0.0000
  O1     O1        0.407838519351836    0.225995973690171    0.407088775621662  0.0000
  O1     O1        0.972579396516475    0.987908081325240    0.461562356418648  0.0000
  O3     O3        0.470744455591095    0.974958087278181    0.568273141145284  0.0000
  O1     O1        0.020235507997898    0.020457750873976    0.214614599741906  0.0000
  O1     O1        0.522120785800522    0.004286605377787    0.321295946750397  0.0000
  O1     O1        0.020076242407506    0.001035288499694    0.713066167661471  0.0000
  O3     O3        0.518042554534693    0.978250363616638    0.809372600499776  0.0000
  O3     O3        0.589627401435457    0.202354189498942    0.128282446307006  0.0000
  O1     O1        0.907518931687611    0.783317660297559    0.137951156272096  0.0000
  O1     O1        0.407543808834390    0.206084177021221    0.902837646994240  0.0000
  O1     O1        0.077672044809545    0.779560866722296    0.905128975205280  0.0000
  O1     O1        0.373411921515510    0.859519156101387    0.888050160436924  0.0000
  O1     O1        0.120058188700040    0.123802222013528    0.900863123138913  0.0000
  O1     O1        0.618401858335742    0.844922859564229    0.152763000496716  0.0000
  O1     O1        0.869188280177137    0.123967123000164    0.143822598140323  0.0000
  O1     O1        0.476902880081926    0.965742271399940    0.066891637360413  0.0000
  O1     O1        0.969846048884671    0.022119742674886    0.962880579044054  0.0000
  O3     O3        0.150412360340865    0.507148756957204    0.360869698771863  0.0000
  O3     O3        0.350242113749627    0.555154227085127    0.355824808746581  0.0000
  O1     O1        0.829033120637013    0.463561526701327    0.674195284914151  0.0000
  O1     O1        0.644326588017635    0.508587239920453    0.678450445824932  0.0000
  O1     O1        0.259011719155934    0.260757634925425    0.324372192839816  0.0000
  O2     O2        0.239721747508485    0.755634974881571    0.286886960142592  0.0000
  O1     O1        0.727463127170334    0.208780797927285    0.726278850449235  0.0000
  O1     O1        0.750897954767272    0.762547309639666    0.730284387852326  0.0000
  O1     O1        0.134867811805766    0.263285234214653    0.155045006994021  0.0000
  O3     O3        0.356959413268725    0.733555707418853    0.143416104720513  0.0000
  O1     O1        0.853094661909143    0.254579495453964    0.889764673414717  0.0000
  O1     O1        0.628072501905338    0.728706081306364    0.894415274072689  0.0000
  O1     O1        0.872393832151992    0.663206277326234    0.888432815546911  0.0000
  O3     O3        0.614430604628279    0.316950414268793    0.895526005483638  0.0000
  O3     O3        0.119113175255923    0.683757649411781    0.153377037436780  0.0000
  O1     O1        0.379627727729350    0.322095834688352    0.154505736639280  0.0000
  O3     O3        0.654615493747404    0.501113764915304    0.098443449436003  0.0000
  O1     O1        0.839130037158585    0.464506399969492    0.107531900345808  0.0000
  O1     O1        0.336638321776765    0.518984102525470    0.933649744740209  0.0000
  O1     O1        0.152233348283279    0.469817278770998    0.940664406630066  0.0000
  O3     O3        0.726911737809709    0.219713490656193    0.042842752972523  0.0000
  O1     O1        0.757465250493385    0.759630533198417    0.049274664498275  0.0000
  O1     O1        0.260266190652515    0.222444638331121    0.999849137445930  0.0000
  O1     O1        0.230674793406126    0.776170580311490    0.973678697622888  0.0000
