data_c00989.vasp
_audit_creation_method             Generated by GULP
_audit_author_name                 Salvador R. G. Balestra
_symmetry_space_group_name_H-M     'P 1             '
_symmetry_Int_Tables_number        1

loop_
_symmetry_equiv_pos_site_id
_symmetry_equiv_pos_as_xyz
_cell_length_a                       17.5796
_cell_length_b                        7.8088
_cell_length_c                       10.1945
_cell_angle_alpha                   91.1175
_cell_angle_beta                    90.5551
_cell_angle_gamma                   91.0675

loop_
_atom_site_label
_atom_site_type_symbol
_atom_site_fract_x
_atom_site_fract_y
_atom_site_fract_z
_atom_site_charge
  Ge     Ge        0.052090000000021    0.000000000000000    0.372269999999958  0.0000
  Ge     Ge        0.442624734033516    0.048084655031944    0.373515114181906  0.0000
  Ge     Ge        0.942445676964258    0.026156979490777    0.623635088759946  0.0000
  Ge     Ge        0.548021474080481    0.984424704014739    0.121614121909515  0.0000
  Ge     Ge        0.942889092027378    0.043645808104756    0.121309313787910  0.0000
  Ge     Ge        0.443505459210056    0.038912826362619    0.865147359437229  0.0000
  Ge     Ge        0.168095022930104    0.291536373738163    0.264252827970518  0.0000
  Ge     Ge        0.320692362138520    0.764650249535880    0.256324018212665  0.0000
  Ge     Ge        0.640079826822575    0.663808191374093    0.681499598974038  0.0000
  Ge     Ge        0.822078145585653    0.734073741780165    0.686320195355853  0.0000
  Ge     Ge        0.663846842451859    0.263635855634892    0.689648265898458  0.0000
  Ge     Ge        0.350571489791112    0.362620180420632    0.258733442827739  0.0000
  Ge     Ge        0.669895563379553    0.265726449745068    0.009265961899512  0.0000
  Ge     Ge        0.820919194971945    0.756634298689961    0.004474093510654  0.0000
  Ge     Ge        0.341695025274564    0.346833344390443    0.939286260285103  0.0000
  Ge     Ge        0.141249053226259    0.672611790617118    0.939364050860426  0.0000
  Ge     Ge        0.320314772839402    0.753177606334992    0.938517173616666  0.0000
  Ge     Ge        0.160957367589500    0.266662057953657    0.948597751875436  0.0000
  Ge     Ge        0.640977436923007    0.669054286486584    0.001624803658542  0.0000
  Ge     Ge        0.848691319786246    0.351209355272524    0.001022771908416  0.0000
  Si     Si        0.545739141219454    0.977620685356413    0.619047077633915  0.0000
  Si     Si        0.043256272911796    0.976311738719509    0.875687050818200  0.0000
  Si     Si        0.841701891209124    0.338247305163751    0.687858477042674  0.0000
  Si     Si        0.143358794426543    0.686378153353942    0.251491130968788  0.0000
  O1     O1        0.122643266905850    0.152925319007154    0.366063389869789  0.0000
  O1     O1        0.362029571469562    0.924214110656901    0.349627498079565  0.0000
  O3     O3        0.900969343496688    0.224890003703157    0.607252669998523  0.0000
  O3     O3        0.575019801670666    0.785961859145004    0.596081043533907  0.0000
  O1     O1        0.875079812411907    0.868349454076928    0.591512675757802  0.0000
  O3     O3        0.615472317565076    0.110069858387479    0.595606620390838  0.0000
  O3     O3        0.082237498601350    0.796833700131759    0.329327560951956  0.0000
  O1     O1        0.418389785524443    0.255899961574444    0.345827439395202  0.0000
  O1     O1        0.021289171993809    0.999568210536829    0.532023863482845  0.0000
  O3     O3        0.472019366890925    0.022623044430237    0.535321015676655  0.0000
  O1     O1        0.973041200445164    0.048425136651367    0.281321518700764  0.0000
  O1     O1        0.517937182339403    0.985113942351421    0.281225948830809  0.0000
  O3     O3        0.970673340339316    0.012557705077351    0.787550855172690  0.0000
  O3     O3        0.521910362562258    0.998479397637450    0.771883402635250  0.0000
  O1     O1        0.625084753366416    0.120370994785356    0.105758827615948  0.0000
  O1     O1        0.866018046556742    0.906930323199784    0.102619896622116  0.0000
  O1     O1        0.403062935688398    0.234775782957416    0.842270582409637  0.0000
  O3     O3        0.075908425232332    0.786862517184988    0.850248826650332  0.0000
  O1     O1        0.373489322412870    0.884052601733230    0.842471982549262  0.0000
  O3     O3        0.109518778990968    0.118636812624324    0.854770821867061  0.0000
  O1     O1        0.571960765583535    0.777310244244280    0.082963803669408  0.0000
  O1     O1        0.919694243385482    0.248979770917102    0.080086960872769  0.0000
  O1     O1        0.473245401088413    0.046743564014429    0.026704414803301  0.0000
  O3     O3        0.018985771112303    0.978861192489372    0.028045698181818  0.0000
  O3     O3        0.155222886009544    0.502821260957686    0.316651543557340  0.0000
  O1     O1        0.342179140354906    0.568303674987177    0.318515504461640  0.0000
  O3     O3        0.831444753594569    0.524175083203779    0.627340365806286  0.0000
  O1     O1        0.645296324354304    0.458643203758359    0.620762613246913  0.0000
  O1     O1        0.263895143585748    0.256772395334817    0.266066864927249  0.0000
  O3     O3        0.223192399559458    0.791821976633881    0.251892872137518  0.0000
  O3     O3        0.761237848017992    0.234256769532136    0.688877005660645  0.0000
  O1     O1        0.726288846029219    0.771176721365571    0.677792408718106  0.0000
  O1     O1        0.131592613003378    0.257312800754033    0.108869817131049  0.0000
  O1     O1        0.353130887548970    0.775940569862740    0.097979547598396  0.0000
  O3     O3        0.870385207166629    0.371020442573380    0.836535986402668  0.0000
  O1     O1        0.612732453593589    0.639538002129474    0.840903428679702  0.0000
  O1     O1        0.852231414556358    0.766872578841904    0.845606945736111  0.0000
  O1     O1        0.635968118295237    0.251481315416045    0.850066121874041  0.0000
  O3     O3        0.116434255799454    0.649423352724423    0.102617072907975  0.0000
  O1     O1        0.376326608392578    0.372720793797736    0.097186819500961  0.0000
  O1     O1        0.654688300860580    0.471594772654788    0.066900865395338  0.0000
  O1     O1        0.837372911354870    0.554116356437432    0.062523969506899  0.0000
  O1     O1        0.327999862888175    0.545691822841673    0.879429109117692  0.0000
  O1     O1        0.147775546202308    0.466966652878288    0.882422862038194  0.0000
  O1     O1        0.765916173145914    0.231942390445854    0.012963834544420  0.0000
  O1     O1        0.724506554303994    0.787810520977249    0.005155730176413  0.0000
  O1     O1        0.256900020671618    0.231565175143836    0.946473142011868  0.0000
  O1     O1        0.224604560963559    0.790477212580740    0.933897843836548  0.0000
