data_c00957.vasp
_audit_creation_method             Generated by GULP
_audit_author_name                 Salvador R. G. Balestra
_symmetry_space_group_name_H-M     'P 1             '
_symmetry_Int_Tables_number        1

loop_
_symmetry_equiv_pos_site_id
_symmetry_equiv_pos_as_xyz
_cell_length_a                       17.7014
_cell_length_b                        7.8685
_cell_length_c                       10.3588
_cell_angle_alpha                   90.9273
_cell_angle_beta                    90.7747
_cell_angle_gamma                   89.7245

loop_
_atom_site_label
_atom_site_type_symbol
_atom_site_fract_x
_atom_site_fract_y
_atom_site_fract_z
_atom_site_charge
  Ge     Ge        0.052090000000021    0.000000000000000    0.372269999999958  0.0000
  Ge     Ge        0.445657039906629    0.026100862774942    0.375504307014431  0.0000
  Ge     Ge        0.945050277608083    0.973909264229912    0.622564435512095  0.0000
  Ge     Ge        0.552572180866432    0.014715143185757    0.127534572415892  0.0000
  Ge     Ge        0.943084560806460    0.976675138820254    0.122771489322386  0.0000
  Ge     Ge        0.440713775935738    0.986382540921577    0.878884201783456  0.0000
  Ge     Ge        0.163910932235029    0.293568342662696    0.265000799329385  0.0000
  Ge     Ge        0.326264299586842    0.737625900435798    0.249820699013329  0.0000
  Ge     Ge        0.822309614369602    0.259301029129864    0.690734012415195  0.0000
  Ge     Ge        0.660064779758914    0.718943228169606    0.698029577569052  0.0000
  Ge     Ge        0.842069582265297    0.663426591475897    0.693794827902474  0.0000
  Ge     Ge        0.640645026906282    0.314400308896713    0.695668066452007  0.0000
  Ge     Ge        0.346714426526925    0.332984872966343    0.268401748026331  0.0000
  Ge     Ge        0.643077500791361    0.327687875604545    0.009576167452576  0.0000
  Ge     Ge        0.849950578635161    0.660298837833114    0.007927913932537  0.0000
  Ge     Ge        0.341042860864610    0.307702177071249    0.956402607533219  0.0000
  Ge     Ge        0.146594433492351    0.677615275559365    0.944745048113581  0.0000
  Ge     Ge        0.157125377962839    0.273583672471803    0.953848419387298  0.0000
  Ge     Ge        0.669706166670878    0.729963729455849    0.011266725632835  0.0000
  Ge     Ge        0.823231085389883    0.256564668702333    0.004417102663644  0.0000
  Si     Si        0.542548181817176    0.999425992186869    0.628376440706380  0.0000
  Si     Si        0.045528923922429    0.987622507492970    0.877192587391185  0.0000
  Si     Si        0.149786324264878    0.692682112085520    0.252490594362377  0.0000
  Si     Si        0.324815132478693    0.705305976089110    0.941974347336899  0.0000
  O1     O1        0.113415923861502    0.166431041656109    0.364336329375160  0.0000
  O1     O1        0.372222480872587    0.895074103027267    0.330357007653265  0.0000
  O1     O1        0.875410912426061    0.123825661487278    0.598151337204607  0.0000
  O3     O3        0.607960185266650    0.859728248899184    0.605675983842535  0.0000
  O1     O1        0.903327931879561    0.778911633861634    0.603745140751246  0.0000
  O3     O3        0.576927017924292    0.186714808794872    0.611109753538149  0.0000
  O3     O3        0.092138412291690    0.805526545497034    0.333801814063820  0.0000
  O1     O1        0.410290119755640    0.228418230909585    0.364877364096462  0.0000
  O1     O1        0.022198298993971    0.995324508913887    0.529217698147028  0.0000
  O3     O3        0.471748846980355    0.977820379445557    0.532567108299761  0.0000
  O1     O1        0.972629191989826    0.020317456067952    0.277577866273250  0.0000
  O1     O1        0.524256745889532    0.997260143028670    0.284279364996898  0.0000
  O3     O3        0.974519270247108    0.000983720254033    0.783090470146297  0.0000
  O3     O3        0.514578849302763    0.971605441304687    0.774070658827154  0.0000
  O1     O1        0.578662045933787    0.220134380179408    0.097736980748513  0.0000
  O1     O1        0.914956209917704    0.769795881183275    0.099754636840883  0.0000
  O1     O1        0.397342353509340    0.180812489450098    0.862923974868172  0.0000
  O3     O3        0.085150859246393    0.803465319687084    0.858949693048079  0.0000
  O3     O3        0.373744390503899    0.827397019847541    0.854520451012850  0.0000
  O3     O3        0.108198036280747    0.131827670391416    0.855858642267400  0.0000
  O1     O1        0.627883055421834    0.880398738524151    0.106470446959040  0.0000
  O1     O1        0.867292751098581    0.107819427322338    0.095692569688018  0.0000
  O1     O1        0.476991829496044    0.959304264204027    0.031080994370388  0.0000
  O3     O3        0.018389760727957    0.017311375192115    0.023650507255036  0.0000
  O3     O3        0.157077217197886    0.506525189787316    0.311945802752766  0.0000
  O1     O1        0.344127864144403    0.542615726724477    0.315548655515555  0.0000
  O1     O1        0.831772576045870    0.461966467935365    0.632748744030414  0.0000
  O1     O1        0.646289228114405    0.515802225658920    0.636387001959867  0.0000
  O1     O1        0.258036419352777    0.244792040880181    0.273997955213068  0.0000
  O3     O3        0.230806998167615    0.784325485743115    0.254013747776133  0.0000
  O1     O1        0.727329431928228    0.214797466945906    0.689149228371925  0.0000
  O1     O1        0.754872189309884    0.763100463041621    0.694121465445916  0.0000
  O1     O1        0.128141893264857    0.268777863447715    0.111597540670029  0.0000
  O3     O3        0.353094528336821    0.720912073505966    0.090289550671186  0.0000
  O1     O1        0.853945655424501    0.250008602180883    0.848110624888032  0.0000
  O1     O1        0.633222020526957    0.731429300730256    0.856676521255173  0.0000
  O1     O1        0.877044767365620    0.652070285578404    0.849162902884194  0.0000
  O1     O1        0.611133908185334    0.334807999259062    0.852161216608095  0.0000
  O3     O3        0.120314260138213    0.677023415951318    0.105094012254234  0.0000
  O1     O1        0.376897398200143    0.309786745670715    0.111181615287147  0.0000
  O1     O1        0.654724187592730    0.529021998272586    0.070637097925904  0.0000
  O1     O1        0.840174332200590    0.459019045672531    0.064925214993536  0.0000
  O3     O3        0.334707247564044    0.510620490539672    0.895052763689743  0.0000
  O1     O1        0.142941199387724    0.472478305218556    0.890195875303833  0.0000
  O1     O1        0.727846564565888    0.220514410258867    0.006756229651279  0.0000
  O1     O1        0.764697084528311    0.766511817432215    0.009418447921414  0.0000
  O1     O1        0.251440846911362    0.225562703045482    0.958105008884609  0.0000
  O3     O3        0.237022673837221    0.757288062595082    0.933311424388278  0.0000
