data_c00966.vasp
_audit_creation_method             Generated by GULP
_audit_author_name                 Salvador R. G. Balestra
_symmetry_space_group_name_H-M     'P 1             '
_symmetry_Int_Tables_number        1

loop_
_symmetry_equiv_pos_site_id
_symmetry_equiv_pos_as_xyz
_cell_length_a                       17.4793
_cell_length_b                        7.7353
_cell_length_c                       10.5406
_cell_angle_alpha                   91.6593
_cell_angle_beta                    92.1043
_cell_angle_gamma                   91.8305

loop_
_atom_site_label
_atom_site_type_symbol
_atom_site_fract_x
_atom_site_fract_y
_atom_site_fract_z
_atom_site_charge
  Ge     Ge        0.052090000000021    0.000000000000000    0.372269999999958  0.0000
  Ge     Ge        0.465093006336720    0.997102403299488    0.336745821159385  0.0000
  Ge     Ge        0.942007939500921    0.976514800734405    0.615918262837013  0.0000
  Ge     Ge        0.548927646354500    0.968792712938237    0.067980577751726  0.0000
  Ge     Ge        0.940256345685102    0.995770452118305    0.116869141300296  0.0000
  Ge     Ge        0.426657331649946    0.964129376639994    0.825740727018531  0.0000
  Ge     Ge        0.151052308062396    0.312957033046643    0.266237524964057  0.0000
  Ge     Ge        0.357738658611001    0.674191042104497    0.244277551778126  0.0000
  Ge     Ge        0.838011483977748    0.280899322842986    0.700102121837375  0.0000
  Ge     Ge        0.633488260267201    0.634346449583199    0.683281376280086  0.0000
  Ge     Ge        0.817229839454845    0.697428166384650    0.689647572604049  0.0000
  Ge     Ge        0.177207522248336    0.727709810899923    0.262889175443845  0.0000
  Ge     Ge        0.332357402946921    0.250006056488074    0.248433229554833  0.0000
  Ge     Ge        0.675724568465724    0.253629640785910    0.000791623537973  0.0000
  Ge     Ge        0.817969875592862    0.714466827607335    0.994002191533370  0.0000
  Ge     Ge        0.316088355702702    0.239960581288398    0.944012554524359  0.0000
  Ge     Ge        0.160450316149000    0.707545982342334    0.953662692052816  0.0000
  Ge     Ge        0.132905730176583    0.297722728031154    0.957425697919685  0.0000
  Ge     Ge        0.631819826764980    0.630610835095164    0.996273274707030  0.0000
  Ge     Ge        0.853563996178851    0.311162085514122    0.003708539437744  0.0000
  Si     Si        0.543944312504382    0.956733412672320    0.605197575950330  0.0000
  Si     Si        0.038929518467924    0.968599954151969    0.874753036867518  0.0000
  Si     Si        0.664515293971529    0.249819691989781    0.694440754973586  0.0000
  Si     Si        0.339947320047958    0.654671005495620    0.944422032376686  0.0000
  O1     O1        0.087581369672407    0.207753307608074    0.359556903389483  0.0000
  O1     O1        0.430920102747101    0.786266241896687    0.324502088404760  0.0000
  O1     O1        0.902468261772894    0.174833940781155    0.608903049235628  0.0000
  O3     O3        0.570140073143755    0.760586429883620    0.599121720954260  0.0000
  O1     O1        0.868379821790817    0.824903751910036    0.591234018348813  0.0000
  O2     O2        0.611911565630384    0.074248075928685    0.678851102335410  0.0000
  O1     O1        0.128138610761221    0.867325685565202    0.353954535164047  0.0000
  O1     O1        0.388350779650897    0.129665566307362    0.345540347148255  0.0000
  O1     O1        0.017335407702981    0.964066743637335    0.519267583344186  0.0000
  O3     O3        0.528318289915310    0.025745388298333    0.465900324552815  0.0000
  O1     O1        0.976388668513135    0.959785875178093    0.266166449621146  0.0000
  O1     O1        0.515678276945570    0.050280638726915    0.206433974120638  0.0000
  O3     O3        0.976124974283775    0.921757891089987    0.766657231626809  0.0000
  O3     O3        0.465229168759919    0.969865348288675    0.678342028956100  0.0000
  O1     O1        0.638424269766471    0.058626763725381    0.037391717645511  0.0000
  O1     O1        0.856384949516831    0.875277790377823    0.093075014941784  0.0000
  O1     O1        0.354302928082481    0.109034214319313    0.831879882259271  0.0000
  O3     O3        0.114051779376991    0.853707360619804    0.861569982099881  0.0000
  O3     O3        0.393478505926223    0.754007022245623    0.848339339292045  0.0000
  O3     O3        0.064418354277762    0.171100110990148    0.871727840016806  0.0000
  O1     O1        0.568157171622081    0.753602979207803    0.076198235741134  0.0000
  O1     O1        0.921568391075845    0.209394802998145    0.093994117430905  0.0000
  O1     O1        0.491545965275938    0.029571576619232    0.943252373275604  0.0000
  O3     O3        0.005987064574111    0.921586660816650    0.010474556915527  0.0000
  O1     O1        0.168074252985342    0.520870872472654    0.319636047822393  0.0000
  O1     O1        0.347793815520235    0.466557218340506    0.289695805786836  0.0000
  O1     O1        0.856882215765570    0.497855544711100    0.695582759404623  0.0000
  O3     O3        0.617143739520049    0.412661341259878    0.648369097493193  0.0000
  O1     O1        0.236344173584678    0.206147672258916    0.262239515465806  0.0000
  O1     O1        0.273490988578925    0.780058079573990    0.263819588038536  0.0000
  O3     O3        0.746290361307822    0.228444469798931    0.632355493829923  0.0000
  O1     O1        0.723705654108551    0.674731720471941    0.633670543654303  0.0000
  O1     O1        0.110269509059106    0.305480814737560    0.114527390513264  0.0000
  O3     O3        0.379641246687028    0.679493628161792    0.084415135543125  0.0000
  O1     O1        0.853505783968948    0.215758607894260    0.853008727335411  0.0000
  O1     O1        0.616812746604233    0.682602701034357    0.838984553296703  0.0000
  O1     O1        0.812525629264859    0.785181564240986    0.840886123038231  0.0000
  O3     O3        0.691852583562618    0.295881859258365    0.840655931990398  0.0000
  O1     O1        0.138931695310734    0.724080939437277    0.110502300733895  0.0000
  O1     O1        0.355995809089062    0.210255328295029    0.092917606947538  0.0000
  O1     O1        0.614475290912091    0.418141582343535    0.033819720573220  0.0000
  O1     O1        0.871709580035514    0.530008647812292    0.000296531626141  0.0000
  O3     O3        0.328674830141924    0.455422974789471    0.903649613022302  0.0000
  O1     O1        0.136807192512500    0.500376983479843    0.897832996108531  0.0000
  O1     O1        0.765693149233429    0.273486426291268    0.068823842697730  0.0000
  O1     O1        0.727350310164785    0.659552831739591    0.039206253792016  0.0000
  O1     O1        0.219721142737490    0.200704370846009    0.950050444695319  0.0000
  O3     O3        0.258243248612513    0.745141381908979    0.946820684781718  0.0000
