data_c00933.vasp
_audit_creation_method             Generated by GULP
_audit_author_name                 Salvador R. G. Balestra
_symmetry_space_group_name_H-M     'P 1             '
_symmetry_Int_Tables_number        1

loop_
_symmetry_equiv_pos_site_id
_symmetry_equiv_pos_as_xyz
_cell_length_a                       17.5232
_cell_length_b                        7.8271
_cell_length_c                       10.3045
_cell_angle_alpha                   89.3304
_cell_angle_beta                    90.4951
_cell_angle_gamma                   91.6068

loop_
_atom_site_label
_atom_site_type_symbol
_atom_site_fract_x
_atom_site_fract_y
_atom_site_fract_z
_atom_site_charge
  Ge     Ge        0.052090000000021    0.000000000000000    0.372269999999958  0.0000
  Ge     Ge        0.448322257949279    0.051412986524232    0.346103882273851  0.0000
  Ge     Ge        0.948991806736456    0.048865427254907    0.628364589762055  0.0000
  Ge     Ge        0.549959875281206    0.977868665097839    0.089773609002564  0.0000
  Ge     Ge        0.946109380340766    0.044803561513156    0.119717137268146  0.0000
  Ge     Ge        0.442953713283462    0.043969176190233    0.836391185789360  0.0000
  Ge     Ge        0.173482833444779    0.286309309888982    0.262523751306027  0.0000
  Ge     Ge        0.324417954610121    0.771551637000668    0.258145945208412  0.0000
  Ge     Ge        0.847216659481458    0.360536827772497    0.691969284498237  0.0000
  Ge     Ge        0.641105974079272    0.682356712606131    0.708824859317812  0.0000
  Ge     Ge        0.823793446567668    0.762524691991757    0.700517012420510  0.0000
  Ge     Ge        0.666668822681196    0.279334204316726    0.701039513342764  0.0000
  Ge     Ge        0.143574508089261    0.686208726225302    0.256864941351835  0.0000
  Ge     Ge        0.355740214273658    0.367653831734632    0.263322284614040  0.0000
  Ge     Ge        0.674525779655416    0.266250344923222    0.018017143611398  0.0000
  Ge     Ge        0.828581892013757    0.746586934487738    0.013957345059038  0.0000
  Ge     Ge        0.352261559753222    0.360547673379330    0.951844168727247  0.0000
  Ge     Ge        0.147084056658379    0.683473735147944    0.942173349015379  0.0000
  Ge     Ge        0.168051121849031    0.284997609313004    0.949096352888563  0.0000
  Ge     Ge        0.646933012210214    0.664487663907046    0.024714016972776  0.0000
  Si     Si        0.547443397224058    0.990727404989077    0.595815607853524  0.0000
  Si     Si        0.051010546745036    0.993465411741308    0.878809851045189  0.0000
  Si     Si        0.326237609312390    0.759431803492856    0.950970598229056  0.0000
  Si     Si        0.851074266327176    0.351133409632651    0.003349062155093  0.0000
  O1     O1        0.130322318450481    0.133964740306686    0.358313512546903  0.0000
  O1     O1        0.371082557887003    0.912103255353778    0.357632430615062  0.0000
  O1     O1        0.915411679861823    0.252362262292945    0.611775751025728  0.0000
  O3     O3        0.572784937984953    0.799858393680146    0.628739029091436  0.0000
  O1     O1        0.873004819980891    0.908504991611681    0.606671329195275  0.0000
  O3     O3        0.616812321199266    0.125275882363115    0.615327518144405  0.0000
  O1     O1        0.075261355033880    0.794068054756839    0.337229856668929  0.0000
  O1     O1        0.418118304984136    0.256251691404452    0.360203088924931  0.0000
  O1     O1        0.023339817037721    0.008363237717204    0.531287115159639  0.0000
  O3     O3        0.523444466348825    0.000388085680685    0.444726993604587  0.0000
  O1     O1        0.976941627920184    0.063717361474536    0.277167345605579  0.0000
  O1     O1        0.477378507001365    0.026319190259062    0.187447382887499  0.0000
  O3     O3        0.978828914698661    0.027519716724439    0.789462649016934  0.0000
  O3     O3        0.472780054400261    0.037838925121077    0.676358189206371  0.0000
  O1     O1        0.628525257338098    0.114946003751642    0.108962991455083  0.0000
  O1     O1        0.876954414308513    0.886264991207816    0.113277714949920  0.0000
  O1     O1        0.413488126140267    0.249176351948812    0.858838377906151  0.0000
  O3     O3        0.086573132770592    0.809298317549216    0.851994905836746  0.0000
  O3     O3        0.367596909988814    0.899683986367296    0.860202226162178  0.0000
  O3     O3        0.117862041165077    0.136396517179317    0.857663487653662  0.0000
  O1     O1        0.582574310689025    0.774614563985178    0.112902128490447  0.0000
  O3     O3        0.916133223363813    0.245672408918742    0.074204628047883  0.0000
  O1     O1        0.519821829027638    0.996125134992943    0.930226971693399  0.0000
  O3     O3        0.024459001825924    0.993006273393901    0.028654621541800  0.0000
  O1     O1        0.157719178820836    0.487302552922102    0.322436597324332  0.0000
  O1     O1        0.342723480960661    0.568669889119884    0.317016143563068  0.0000
  O1     O1        0.837312774554732    0.563525514248674    0.634718661679955  0.0000
  O1     O1        0.649492241566950    0.482691804929590    0.643305519623384  0.0000
  O1     O1        0.269625414477172    0.255595945344962    0.258314288611946  0.0000
  O1     O1        0.228560667216924    0.803717254504838    0.261051907476672  0.0000
  O1     O1        0.762345545144724    0.245237034081054    0.684558031970997  0.0000
  O1     O1        0.727291959188419    0.793104825972923    0.702444904077965  0.0000
  O1     O1        0.137362694682032    0.273350456259817    0.106841838882741  0.0000
  O3     O3        0.357066613428751    0.779134576156115    0.098445233159657  0.0000
  O3     O3        0.872131255963970    0.384728216582347    0.854099119499977  0.0000
  O1     O1        0.614702025968589    0.650478458837482    0.866407018677552  0.0000
  O1     O1        0.858226477212837    0.777749027667789    0.857328365474284  0.0000
  O1     O1        0.640772698168920    0.262993860059561    0.860611734799942  0.0000
  O1     O1        0.115932134608980    0.657979657875281    0.098500621298104  0.0000
  O1     O1        0.388820973576061    0.368631021213608    0.106338910451240  0.0000
  O1     O1        0.657586508094111    0.462862957004379    0.084467271981820  0.0000
  O3     O3        0.841672279693717    0.536096384316566    0.066218249604500  0.0000
  O3     O3        0.341770787961362    0.570008224427987    0.898848002274914  0.0000
  O1     O1        0.152201462319031    0.483654565731226    0.880059919523504  0.0000
  O3     O3        0.772279837540303    0.239298361750305    0.012960960550118  0.0000
  O1     O1        0.732483747410248    0.778502915105945    0.021186194494339  0.0000
  O1     O1        0.264593008732601    0.256379613015871    0.948623760341863  0.0000
  O3     O3        0.235900030531734    0.786777055149992    0.950588591396680  0.0000
