data_c00952.vasp
_audit_creation_method             Generated by GULP
_audit_author_name                 Salvador R. G. Balestra
_symmetry_space_group_name_H-M     'P 1             '
_symmetry_Int_Tables_number        1

loop_
_symmetry_equiv_pos_site_id
_symmetry_equiv_pos_as_xyz
_cell_length_a                       17.4893
_cell_length_b                        7.8231
_cell_length_c                       10.2851
_cell_angle_alpha                   90.1430
_cell_angle_beta                    91.4926
_cell_angle_gamma                   88.2760

loop_
_atom_site_label
_atom_site_type_symbol
_atom_site_fract_x
_atom_site_fract_y
_atom_site_fract_z
_atom_site_charge
  Ge     Ge        0.052090000000021    0.000000000000000    0.372269999999958  0.0000
  Ge     Ge        0.444514044257274    0.955068616203735    0.366210127281345  0.0000
  Ge     Ge        0.944253875110976    0.957182361873647    0.620908068805189  0.0000
  Ge     Ge        0.552810124346289    0.018852102990624    0.124689476275494  0.0000
  Ge     Ge        0.941582413339865    0.953713185927016    0.119488970352259  0.0000
  Ge     Ge        0.445056450153758    0.950398306901121    0.868615345773609  0.0000
  Ge     Ge        0.145036450262794    0.315777793188503    0.256424981265151  0.0000
  Ge     Ge        0.355369786277739    0.633145800414301    0.252160120801636  0.0000
  Ge     Ge        0.820429651683366    0.243194774349758    0.694387869593508  0.0000
  Ge     Ge        0.661750782423809    0.729317369981983    0.691857153304822  0.0000
  Ge     Ge        0.843135733388101    0.647262232929042    0.688785037834146  0.0000
  Ge     Ge        0.637813042440502    0.325267395236390    0.693782077398146  0.0000
  Ge     Ge        0.172006988821620    0.713610901999405    0.263228521208366  0.0000
  Ge     Ge        0.640879580223340    0.334652672174515    0.009435222573057  0.0000
  Ge     Ge        0.319797372935677    0.239582500944935    0.941204172950753  0.0000
  Ge     Ge        0.162391816119748    0.724361374407762    0.948611130428646  0.0000
  Ge     Ge        0.344918898681456    0.643396104671015    0.938614038172337  0.0000
  Ge     Ge        0.138996826095902    0.321616736815821    0.939989658867086  0.0000
  Ge     Ge        0.671529857580449    0.733976418300269    0.008293188218928  0.0000
  Ge     Ge        0.823801239874373    0.251543788939644    0.008196048631081  0.0000
  Si     Si        0.542339376857895    0.015207625838490    0.619769353471102  0.0000
  Si     Si        0.042615551335600    0.013804115371302    0.876607806723670  0.0000
  Si     Si        0.324887036077084    0.238861923323580    0.249704365590039  0.0000
  Si     Si        0.849191467490147    0.647128222909553    0.998424480675047  0.0000
  O1     O1        0.080197977564947    0.203212876308597    0.339392474302508  0.0000
  O1     O1        0.420131653512298    0.746298413757113    0.343282300069418  0.0000
  O1     O1        0.869753506409478    0.103192736193281    0.597460000768293  0.0000
  O3     O3        0.609653815888862    0.874064071637637    0.595703094026039  0.0000
  O1     O1        0.908854689755007    0.755726238420402    0.603564783010583  0.0000
  O3     O3        0.573587453401733    0.204537023894768    0.603595525674446  0.0000
  O1     O1        0.129857969062702    0.864462934628147    0.360201257942483  0.0000
  O3     O3        0.366875735026045    0.090288643212137    0.332819738457323  0.0000
  O1     O1        0.021026454302995    0.994161645717629    0.529824991614385  0.0000
  O3     O3        0.468827177575576    0.982811172866358    0.529693506357679  0.0000
  O1     O1        0.975110529150948    0.941018781366226    0.277247388827540  0.0000
  O1     O1        0.523614922094029    0.005200375873061    0.281998476435614  0.0000
  O3     O3        0.971094852482895    0.975262917342927    0.784881531085008  0.0000
  O3     O3        0.519409548916291    0.992619109582728    0.770334856578411  0.0000
  O1     O1        0.574757684563107    0.227191157622658    0.094185641282285  0.0000
  O3     O3        0.912328640358520    0.751064396592967    0.077614862946101  0.0000
  O1     O1        0.371807592277577    0.100880800575893    0.849702837541610  0.0000
  O3     O3        0.111059772655001    0.873888232390456    0.856748805940028  0.0000
  O1     O1        0.406126447519758    0.753424850451028    0.844571236094383  0.0000
  O3     O3        0.073430628770304    0.203003842156029    0.852003463894110  0.0000
  O1     O1        0.633728009402434    0.892056903103725    0.102463438777133  0.0000
  O1     O1        0.870420252105766    0.108830745901325    0.110182528610221  0.0000
  O1     O1        0.478987505106828    0.951606621353429    0.027040036869775  0.0000
  O3     O3        0.017991329948954    0.007967794698398    0.026885776192975  0.0000
  O1     O1        0.154824387970260    0.513845657406797    0.324024993518796  0.0000
  O3     O3        0.344656979980749    0.425464158456293    0.307006695385748  0.0000
  O1     O1        0.831679634127286    0.445405662935503    0.631522182435069  0.0000
  O1     O1        0.646501985259915    0.525885182361893    0.631783395840329  0.0000
  O3     O3        0.234294717585748    0.211612555149242    0.251884749405898  0.0000
  O1     O1        0.268446213341311    0.739937021471681    0.259294554176389  0.0000
  O1     O1        0.723803703818307    0.211981226141119    0.695608013891225  0.0000
  O1     O1        0.757878726025862    0.763702896039270    0.683291580261760  0.0000
  O1     O1        0.113111943759661    0.343503339609016    0.099036174845211  0.0000
  O1     O1        0.383409988267087    0.627583835954695    0.094427846802005  0.0000
  O1     O1        0.854494388705513    0.223484519976678    0.852623097107382  0.0000
  O1     O1        0.635008652597513    0.744233162844761    0.851383797684419  0.0000
  O3     O3        0.873303948758280    0.622125058185883    0.850003156320931  0.0000
  O1     O1        0.608571252734389    0.351356438864009    0.850447522941736  0.0000
  O1     O1        0.134175017340582    0.732446287186810    0.107402810292327  0.0000
  O3     O3        0.353400840327635    0.229263608379094    0.101950383349171  0.0000
  O1     O1        0.651517766344049    0.536744211100857    0.070658120910901  0.0000
  O3     O3        0.839114189333062    0.460944453840064    0.059678074166213  0.0000
  O1     O1        0.330842432831052    0.442799718777924    0.880832822971073  0.0000
  O1     O1        0.147095389686267    0.524036496835976    0.881782405864073  0.0000
  O1     O1        0.727198423151451    0.223119416054683    0.012270481779342  0.0000
  O3     O3        0.769467883493733    0.756187914130740    0.001101237107245  0.0000
  O1     O1        0.224090217397620    0.204623946056649    0.935886080404474  0.0000
  O1     O1        0.258824251693046    0.756858482486326    0.945925330529949  0.0000
