data_c00902.vasp
_audit_creation_method             Generated by GULP
_audit_author_name                 Salvador R. G. Balestra
_symmetry_space_group_name_H-M     'P 1             '
_symmetry_Int_Tables_number        1

loop_
_symmetry_equiv_pos_site_id
_symmetry_equiv_pos_as_xyz
_cell_length_a                       17.5731
_cell_length_b                        7.8526
_cell_length_c                       10.1178
_cell_angle_alpha                   89.7659
_cell_angle_beta                    91.0720
_cell_angle_gamma                   87.6893

loop_
_atom_site_label
_atom_site_type_symbol
_atom_site_fract_x
_atom_site_fract_y
_atom_site_fract_z
_atom_site_charge
  Ge     Ge        0.052090000000021    0.000000000000000    0.372269999999958  0.0000
  Ge     Ge        0.448129443713960    0.941778425737521    0.411642899747198  0.0000
  Ge     Ge        0.938049598527817    0.951245674250986    0.609532951041645  0.0000
  Ge     Ge        0.553170382739154    0.001374670209697    0.162046163900459  0.0000
  Ge     Ge        0.952321367286648    0.936166766234437    0.111608344803754  0.0000
  Ge     Ge        0.448064708823467    0.937632536042206    0.905000521651381  0.0000
  Ge     Ge        0.052372418525980    0.001738936065979    0.856031802082881  0.0000
  Ge     Ge        0.151153408852067    0.309136055025721    0.301729892505723  0.0000
  Ge     Ge        0.356147760813959    0.626917919423264    0.296135891201775  0.0000
  Ge     Ge        0.846644274757490    0.633396129346512    0.723391920868565  0.0000
  Ge     Ge        0.643666471020783    0.306378351065234    0.729330743710679  0.0000
  Ge     Ge        0.173217238350011    0.708483223303065    0.300239758158318  0.0000
  Ge     Ge        0.644517713000067    0.309873992739959    0.046495722177344  0.0000
  Ge     Ge        0.854746949025069    0.627881060436445    0.044061130708836  0.0000
  Ge     Ge        0.324699721959566    0.225511833202090    0.979759620118773  0.0000
  Ge     Ge        0.173078935562451    0.713029964863212    0.980216765728894  0.0000
  Ge     Ge        0.354882522568124    0.625324579348447    0.978530222698747  0.0000
  Ge     Ge        0.143887336651054    0.310949209928555    0.980066010051790  0.0000
  Ge     Ge        0.674099140822515    0.709426121552207    0.041078702247214  0.0000
  Ge     Ge        0.826175096299924    0.226875509966366    0.040465639918096  0.0000
  Si     Si        0.552049323319961    0.991806366155601    0.662742432941732  0.0000
  Si     Si        0.825235950165432    0.241174867226977    0.728913175119429  0.0000
  Si     Si        0.665613788774526    0.694626709188764    0.725736528737599  0.0000
  Si     Si        0.329600931501420    0.231600873339753    0.293649844335823  0.0000
  O1     O1        0.091145832365186    0.194410127094888    0.395751461098256  0.0000
  O1     O1        0.418102319020399    0.738482397434050    0.392195259679238  0.0000
  O3     O3        0.864131710704829    0.095656577534683    0.639916837407955  0.0000
  O2     O2        0.617226051318814    0.841182715251982    0.643785589778153  0.0000
  O1     O1        0.905414465947843    0.749805508106154    0.629069709743832  0.0000
  O3     O3        0.588124883904070    0.173135832796783    0.635104406894855  0.0000
  O1     O1        0.123626774172098    0.847160192024277    0.399725973676824  0.0000
  O3     O3        0.373947798000516    0.088595419640654    0.381382735966344  0.0000
  O1     O1        0.968150231231600    0.970113470406781    0.448951343935062  0.0000
  O3     O3        0.477284158019829    0.962393937982523    0.576136011741405  0.0000
  O1     O1        0.028998431037717    0.984170497284868    0.205035524279682  0.0000
  O1     O1        0.527320108809620    0.980605682164744    0.323592014533349  0.0000
  O1     O1        0.020864205419354    0.990723339944308    0.694417183093541  0.0000
  O3     O3        0.525992850259006    0.986242004177622    0.815081821262766  0.0000
  O1     O1        0.579830779290723    0.207229761060432    0.138202173074276  0.0000
  O1     O1        0.919700295735471    0.734577140145746    0.136724817678608  0.0000
  O1     O1        0.372739980795530    0.082440048982530    0.883674223240348  0.0000
  O1     O1        0.130314842122213    0.865566918695788    0.880691004131846  0.0000
  O1     O1        0.415789112481474    0.736224113909253    0.882603128242593  0.0000
  O1     O1        0.076600149664456    0.207189916468228    0.890961845993587  0.0000
  O1     O1        0.629736909661704    0.866780028134445    0.127676917622752  0.0000
  O1     O1        0.876942226625860    0.080747900701584    0.132781318699643  0.0000
  O1     O1        0.475564568852965    0.950639861202674    0.068871935272665  0.0000
  O1     O1        0.977466632792227    0.941939596906404    0.947799724047498  0.0000
  O1     O1        0.159165977495193    0.507869358935528    0.363733215583078  0.0000
  O3     O3        0.344760487047947    0.419471259073142    0.350665837298828  0.0000
  O3     O3        0.842088897994112    0.425198765667912    0.667659831414766  0.0000
  O3     O3        0.646520377533539    0.510802460978568    0.664975049544458  0.0000
  O3     O3        0.239692857182999    0.201749539415185    0.294891424257594  0.0000
  O1     O1        0.269323402704539    0.736058587027323    0.299626968269286  0.0000
  O3     O3        0.735229536338981    0.217952256348242    0.735822677597876  0.0000
  O3     O3        0.754934681448033    0.724897334988327    0.717100465105618  0.0000
  O1     O1        0.116705262259310    0.325573200127083    0.141884439337759  0.0000
  O1     O1        0.389908133627509    0.616513700697229    0.138905507521333  0.0000
  O3     O3        0.858284816300764    0.225256844334602    0.878173150443653  0.0000
  O3     O3        0.641392170236810    0.698100090345172    0.878216116797262  0.0000
  O1     O1        0.882139989563235    0.626832932326114    0.880950982168506  0.0000
  O1     O1        0.610000579204828    0.316589369852314    0.885833118360096  0.0000
  O1     O1        0.139599002838222    0.724792213174532    0.139032517143477  0.0000
  O3     O3        0.357846368587950    0.219828885136043    0.143249063793088  0.0000
  O1     O1        0.657186754152550    0.510770353193515    0.105531701516579  0.0000
  O1     O1        0.843615182798901    0.427406828266759    0.101638125898433  0.0000
  O1     O1        0.341390678728288    0.426613862513221    0.919228192213552  0.0000
  O1     O1        0.155510074879786    0.512229324791115    0.920140597105288  0.0000
  O1     O1        0.730892135922512    0.196815957245781    0.046817222429645  0.0000
  O1     O1        0.769134930445597    0.743261995060969    0.044562807226361  0.0000
  O1     O1        0.229305004648880    0.194556887730420    0.973989756956190  0.0000
  O1     O1        0.269192297686527    0.739443340636609    0.985196850158297  0.0000
