data_c00962.vasp
_audit_creation_method             Generated by GULP
_audit_author_name                 Salvador R. G. Balestra
_symmetry_space_group_name_H-M     'P 1             '
_symmetry_Int_Tables_number        1

loop_
_symmetry_equiv_pos_site_id
_symmetry_equiv_pos_as_xyz
_cell_length_a                       17.5560
_cell_length_b                        7.8142
_cell_length_c                       10.2100
_cell_angle_alpha                   89.7126
_cell_angle_beta                    90.8638
_cell_angle_gamma                   91.0999

loop_
_atom_site_label
_atom_site_type_symbol
_atom_site_fract_x
_atom_site_fract_y
_atom_site_fract_z
_atom_site_charge
  Ge     Ge        0.052090000000021    0.000000000000000    0.372269999999958  0.0000
  Ge     Ge        0.436419523368246    0.053064700568037    0.368623143048848  0.0000
  Ge     Ge        0.942173353815222    0.048855061922333    0.617301914094481  0.0000
  Ge     Ge        0.545611690059199    0.000808202780371    0.122893538254927  0.0000
  Ge     Ge        0.939660116398649    0.057638582796895    0.123579622922030  0.0000
  Ge     Ge        0.440290300170216    0.061039113744875    0.865506397643023  0.0000
  Ge     Ge        0.166446528630257    0.295218220631265    0.260571180293472  0.0000
  Ge     Ge        0.319787798267765    0.759959151745843    0.256051398870509  0.0000
  Ge     Ge        0.842060142727469    0.363994760625427    0.684597776333635  0.0000
  Ge     Ge        0.634834533187094    0.692318827044879    0.685018649705055  0.0000
  Ge     Ge        0.816640314983998    0.767367013608476    0.686555594517487  0.0000
  Ge     Ge        0.660010036132867    0.288534116036778    0.689619335550617  0.0000
  Ge     Ge        0.666608790761128    0.284654766864978    0.007991471900560  0.0000
  Ge     Ge        0.817270242945500    0.774465477293758    0.004968458616985  0.0000
  Ge     Ge        0.337023571532750    0.365164213475297    0.936810232070034  0.0000
  Ge     Ge        0.137738493733094    0.691340080195540    0.942647687506988  0.0000
  Ge     Ge        0.317464204476350    0.772814583414192    0.940819058705760  0.0000
  Ge     Ge        0.157056728980873    0.284038379682645    0.945156970573251  0.0000
  Ge     Ge        0.636886211056149    0.687914700603048    0.003271304925677  0.0000
  Ge     Ge        0.846878917536244    0.370657818946615    0.003317902441310  0.0000
  Si     Si        0.540533506794092    0.006872431700790    0.617080737348140  0.0000
  Si     Si        0.038600524455185    0.996111896452950    0.875064552228714  0.0000
  Si     Si        0.141436649903386    0.688416896240643    0.254130518513764  0.0000
  Si     Si        0.344657876250484    0.364708363079909    0.249074880891846  0.0000
  O1     O1        0.124766708979514    0.148481616635655    0.361745143892223  0.0000
  O1     O1        0.363356481515617    0.905416207015337    0.357013871417955  0.0000
  O1     O1        0.906469187161270    0.250254097433142    0.596630672928499  0.0000
  O3     O3        0.570384291667212    0.815844795128755    0.596415566760724  0.0000
  O1     O1        0.867992662450234    0.906152551566910    0.591064749776764  0.0000
  O3     O3        0.609064420157090    0.142827829431352    0.594110793538233  0.0000
  O3     O3        0.081522362828609    0.796625646166803    0.334284452689405  0.0000
  O3     O3        0.406705049180366    0.256667936449824    0.328643606145933  0.0000
  O1     O1        0.021191170686394    0.003747232905545    0.531425665966249  0.0000
  O3     O3        0.466615230102064    0.050280464711690    0.531609068308592  0.0000
  O1     O1        0.972507822022348    0.051415164393364    0.282320877769710  0.0000
  O1     O1        0.514567553731162    0.001003588380681    0.281488783826115  0.0000
  O3     O3        0.966908281031772    0.031158617658781    0.783656762245361  0.0000
  O3     O3        0.517072207539747    0.023684943114334    0.769717946605341  0.0000
  O1     O1        0.623169083439305    0.135633980466789    0.105593242990210  0.0000
  O1     O1        0.862523921722517    0.922379711973204    0.102719905648369  0.0000
  O1     O1        0.400623321362295    0.259249083374224    0.844096750544798  0.0000
  O3     O3        0.072198600025863    0.807686649569423    0.853413491483122  0.0000
  O1     O1        0.369205130222614    0.908281878184106    0.844531475447751  0.0000
  O3     O3        0.104250551745817    0.140592557685663    0.852184043613994  0.0000
  O1     O1        0.569479328352847    0.793993785043887    0.087615813564293  0.0000
  O1     O1        0.914923254098032    0.264942581471363    0.091264380614837  0.0000
  O1     O1        0.470924444453131    0.063448225721515    0.026081038067909  0.0000
  O3     O3        0.014412018571322    0.998504435048242    0.026800510955338  0.0000
  O3     O3        0.150746303949675    0.500865329087710    0.317015572493649  0.0000
  O3     O3        0.337705639815908    0.553109011214119    0.309631701422807  0.0000
  O1     O1        0.828644674069883    0.564819528533177    0.623899247285570  0.0000
  O1     O1        0.644137086872371    0.490263639168883    0.624816189340663  0.0000
  O3     O3        0.263566484460019    0.264388358591596    0.255500768634875  0.0000
  O3     O3        0.222370093740654    0.789522932234878    0.255016238606813  0.0000
  O1     O1        0.755945587939382    0.252320934900825    0.685457662687039  0.0000
  O1     O1        0.720565522307801    0.803202967629689    0.684115838353987  0.0000
  O1     O1        0.129268438909863    0.267352957968378    0.105926771672884  0.0000
  O1     O1        0.351698365553168    0.792017014567924    0.099825345488840  0.0000
  O1     O1        0.874327820472877    0.388138248912387    0.843189497994512  0.0000
  O1     O1        0.605973526706527    0.666241674434821    0.843501864755738  0.0000
  O1     O1        0.848445852011467    0.784509183700815    0.846454879297147  0.0000
  O1     O1        0.631360525809475    0.275129163471400    0.849740522019206  0.0000
  O3     O3        0.112822669522867    0.662686815524953    0.105385769513103  0.0000
  O3     O3        0.368185270050721    0.386474309261299    0.098704858101853  0.0000
  O1     O1        0.651324530396125    0.487866960667635    0.066734361832826  0.0000
  O1     O1        0.833833536896766    0.570996606975802    0.064604037680130  0.0000
  O1     O1        0.325209635332900    0.567876582860787    0.880664594066245  0.0000
  O1     O1        0.143898082964169    0.488605033742333    0.883663356213796  0.0000
  O1     O1        0.762807396744711    0.252915184744558    0.006284124593259  0.0000
  O1     O1        0.720816727068734    0.805844083440629    0.004997266819959  0.0000
  O1     O1        0.252804753355045    0.247999673769836    0.936741372288958  0.0000
  O1     O1        0.221439722454789    0.808542617342317    0.938927223275671  0.0000
