data_c00928.vasp
_audit_creation_method             Generated by GULP
_audit_author_name                 Salvador R. G. Balestra
_symmetry_space_group_name_H-M     'P 1             '
_symmetry_Int_Tables_number        1

loop_
_symmetry_equiv_pos_site_id
_symmetry_equiv_pos_as_xyz
_cell_length_a                       17.6385
_cell_length_b                        7.8289
_cell_length_c                       10.0561
_cell_angle_alpha                   90.6618
_cell_angle_beta                    90.2770
_cell_angle_gamma                   91.7869

loop_
_atom_site_label
_atom_site_type_symbol
_atom_site_fract_x
_atom_site_fract_y
_atom_site_fract_z
_atom_site_charge
  Ge     Ge        0.052090000000021    0.000000000000000    0.372269999999958  0.0000
  Ge     Ge        0.438433088669340    0.054677255666926    0.346727157132472  0.0000
  Ge     Ge        0.938551741961060    0.038451189974146    0.613588452330908  0.0000
  Ge     Ge        0.540118378647922    0.985742732738408    0.088035826150431  0.0000
  Ge     Ge        0.937354485044946    0.046019122128173    0.129984423541530  0.0000
  Ge     Ge        0.439079912768236    0.042101671831912    0.825624426062754  0.0000
  Ge     Ge        0.039383718946266    0.980133507233308    0.873146507013709  0.0000
  Ge     Ge        0.318292165059910    0.765022304614452    0.263774951036985  0.0000
  Ge     Ge        0.837086384031191    0.349107372046772    0.682297474007745  0.0000
  Ge     Ge        0.633978384212174    0.678887168422588    0.697384962998671  0.0000
  Ge     Ge        0.816976918125868    0.749704250617226    0.686511598460478  0.0000
  Ge     Ge        0.341876855732702    0.366853923533178    0.272684432539317  0.0000
  Ge     Ge        0.664932825571558    0.273896043712712    0.013886125001495  0.0000
  Ge     Ge        0.816585529574839    0.757858299302717    0.008210157981621  0.0000
  Ge     Ge        0.345240355336414    0.352311396752569    0.948447631061187  0.0000
  Ge     Ge        0.138072856776665    0.672419727351801    0.938640761549450  0.0000
  Ge     Ge        0.317640094469809    0.757901062809667    0.941347581974177  0.0000
  Ge     Ge        0.165418327046781    0.267338143401154    0.946826515145377  0.0000
  Ge     Ge        0.636069911738494    0.674294601965038    0.016562783005871  0.0000
  Ge     Ge        0.844226882413822    0.353313950349345    0.007423853701006  0.0000
  Si     Si        0.546320256174050    0.992899578983875    0.583031345547250  0.0000
  Si     Si        0.163891271816201    0.293925614954255    0.260463341837621  0.0000
  Si     Si        0.658736578843588    0.283180505555495    0.696937193516214  0.0000
  Si     Si        0.140203809347648    0.686599668892816    0.251766884434262  0.0000
  O3     O3        0.119621187223638    0.162979679507238    0.355466283145633  0.0000
  O1     O1        0.363264314998565    0.911914727016178    0.365322491570931  0.0000
  O1     O1        0.898086402258774    0.232272686635890    0.589079445799621  0.0000
  O3     O3        0.572668524148648    0.801470674107635    0.605474207301542  0.0000
  O1     O1        0.866991574080676    0.887549685735889    0.587281310582315  0.0000
  O2     O2        0.612978626665344    0.132174455016553    0.617495783386452  0.0000
  O3     O3        0.084299667517739    0.796763474613546    0.341191683675778  0.0000
  O1     O1        0.402832351055680    0.253537838847264    0.368751016511993  0.0000
  O1     O1        0.022256612482363    0.004209176349392    0.535365745166909  0.0000
  O3     O3        0.521226500981229    0.012414439728091    0.429890461095991  0.0000
  O1     O1        0.968674259697197    0.038976583233655    0.292012952710598  0.0000
  O1     O1        0.464229778239483    0.034057300883778    0.181277739558323  0.0000
  O1     O1        0.962779004098624    0.027304202200090    0.781001740670092  0.0000
  O3     O3        0.469586827200600    0.033123052556994    0.661937925513214  0.0000
  O1     O1        0.614403531231837    0.132873675176475    0.107057732106112  0.0000
  O1     O1        0.860376067046913    0.909283595454612    0.107307886514355  0.0000
  O1     O1        0.412259877481532    0.246950711191314    0.860640799328107  0.0000
  O1     O1        0.072819432083522    0.777509403705543    0.847038678698586  0.0000
  O1     O1        0.362648176370335    0.903233229980150    0.842133192266561  0.0000
  O1     O1        0.114565646853524    0.124275869821252    0.852598940714658  0.0000
  O1     O1        0.574853364453100    0.785715712426982    0.113844493990507  0.0000
  O1     O1        0.912361730822648    0.251189244573404    0.093985269620225  0.0000
  O1     O1        0.513298864853119    0.986957348210159    0.922746908902754  0.0000
  O1     O1        0.013395643460509    0.987440222679200    0.037908082388515  0.0000
  O2     O2        0.150978561439998    0.492563337167273    0.304715638562172  0.0000
  O1     O1        0.336987356083388    0.569749467384710    0.331637527624421  0.0000
  O1     O1        0.830365830353056    0.548710253506714    0.620677893368489  0.0000
  O3     O3        0.641946231454228    0.469329496789541    0.637800282836012  0.0000
  O3     O3        0.253111431888368    0.262862461543698    0.268213893428897  0.0000
  O3     O3        0.221207202790364    0.787049187145911    0.255148488411141  0.0000
  O3     O3        0.747607323186413    0.248150663911965    0.687211294189662  0.0000
  O1     O1        0.721239762244328    0.780320040598812    0.689758681335734  0.0000
  O3     O3        0.134073934233791    0.260912876809223    0.111102727820192  0.0000
  O1     O1        0.350711634411210    0.777999461752954    0.102842912515952  0.0000
  O1     O1        0.869718047806850    0.365496615254627    0.843189373276553  0.0000
  O1     O1        0.601044078653270    0.663880049571759    0.855473331527848  0.0000
  O1     O1        0.850341648144888    0.767504299901970    0.847858445407569  0.0000
  O3     O3        0.633115465436745    0.277770732083948    0.849776315559111  0.0000
  O3     O3        0.108020704050832    0.670778788118168    0.103747078853742  0.0000
  O1     O1        0.373673613562074    0.372832917693554    0.111645426365599  0.0000
  O1     O1        0.649992191402973    0.476393400272833    0.077428157971406  0.0000
  O1     O1        0.832319596816652    0.555862509866801    0.067797688338981  0.0000
  O1     O1        0.332678289308204    0.551943761231798    0.886470318486635  0.0000
  O1     O1        0.149452876914528    0.468761088777277    0.885272739344630  0.0000
  O1     O1        0.759596577140174    0.236703769160330    0.017722008312389  0.0000
  O1     O1        0.721013334391433    0.788325097452836    0.005383032503436  0.0000
  O1     O1        0.260592099857274    0.234962560170385    0.942451682057914  0.0000
  O1     O1        0.222181312762074    0.789220976868207    0.936175097530869  0.0000
