data_c00949.vasp
_audit_creation_method             Generated by GULP
_audit_author_name                 Salvador R. G. Balestra
_symmetry_space_group_name_H-M     'P 1             '
_symmetry_Int_Tables_number        1

loop_
_symmetry_equiv_pos_site_id
_symmetry_equiv_pos_as_xyz
_cell_length_a                       17.5208
_cell_length_b                        7.8403
_cell_length_c                       10.2693
_cell_angle_alpha                   88.9323
_cell_angle_beta                    90.8531
_cell_angle_gamma                   91.5066

loop_
_atom_site_label
_atom_site_type_symbol
_atom_site_fract_x
_atom_site_fract_y
_atom_site_fract_z
_atom_site_charge
  Ge     Ge        0.052090000000021    0.000000000000000    0.372269999999958  0.0000
  Ge     Ge        0.442699546889617    0.053285699574527    0.369467162215746  0.0000
  Ge     Ge        0.944772953984488    0.062174752872977    0.618907285962336  0.0000
  Ge     Ge        0.552489711631500    0.004292703120683    0.127085323944964  0.0000
  Ge     Ge        0.945354153257579    0.065320181030462    0.117738558900869  0.0000
  Ge     Ge        0.442029091099724    0.063121045847822    0.875553658413339  0.0000
  Ge     Ge        0.171173045908375    0.288303530836522    0.256248133485553  0.0000
  Ge     Ge        0.324579961733946    0.758249093676964    0.255418705999645  0.0000
  Ge     Ge        0.843704229031601    0.374777911031405    0.683930930038536  0.0000
  Ge     Ge        0.637126475403759    0.699650401880935    0.690150793398818  0.0000
  Ge     Ge        0.819590130428624    0.775590197056469    0.685864842764358  0.0000
  Ge     Ge        0.661227070863278    0.296528743834438    0.694563979275032  0.0000
  Ge     Ge        0.142181262917637    0.686850632984325    0.259536022488479  0.0000
  Ge     Ge        0.671711763058400    0.291439756424877    0.010666129566189  0.0000
  Ge     Ge        0.822805563558072    0.780846490997580    0.002474805625978  0.0000
  Ge     Ge        0.344011070696918    0.374890343437735    0.940466650821759  0.0000
  Ge     Ge        0.143917093549600    0.704254364520116    0.942572622285994  0.0000
  Ge     Ge        0.161304278668813    0.303230746370868    0.941169032933083  0.0000
  Ge     Ge        0.641570235906014    0.692850225044124    0.006721111756115  0.0000
  Ge     Ge        0.852687637796995    0.380242194711279    0.000539585470517  0.0000
  Si     Si        0.541107614572244    0.011732757190168    0.623891507831500  0.0000
  Si     Si        0.045519913193507    0.010631942626346    0.872060221304234  0.0000
  Si     Si        0.349967463815168    0.361524456817798    0.247659343354465  0.0000
  Si     Si        0.323582006760782    0.772373962554732    0.948518399475855  0.0000
  O1     O1        0.131932459134978    0.127009315243431    0.347840111906857  0.0000
  O1     O1        0.373194081985497    0.897873980774608    0.352450400782910  0.0000
  O1     O1        0.907974898040980    0.261494509383818    0.597923640324087  0.0000
  O3     O3        0.572473304374600    0.823316934664090    0.603184296493164  0.0000
  O1     O1        0.871330238247014    0.917242912119522    0.591695219394877  0.0000
  O3     O3        0.609369706423422    0.150817138945984    0.602791399397098  0.0000
  O1     O1        0.075899147558847    0.792925857205188    0.345772444659418  0.0000
  O3     O3        0.410101805948344    0.254902148872928    0.332422618435162  0.0000
  O1     O1        0.023140369770292    0.024857295058638    0.529808017743695  0.0000
  O3     O3        0.469122477274271    0.051908257630783    0.533357197358553  0.0000
  O1     O1        0.975668680965045    0.058754102444431    0.276893239100017  0.0000
  O1     O1        0.522656579186823    0.009242258957088    0.285286093266513  0.0000
  O3     O3        0.972164920085022    0.039963369179928    0.782826213285305  0.0000
  O3     O3        0.515666368773657    0.022496086526958    0.774585887745201  0.0000
  O1     O1        0.630626825203408    0.138346092538224    0.108531998688278  0.0000
  O1     O1        0.867822675070497    0.930510640535640    0.096936064919323  0.0000
  O1     O1        0.404330705391831    0.261974760504708    0.848181254565538  0.0000
  O3     O3        0.084758705443082    0.830341910011783    0.848264871744928  0.0000
  O3     O3        0.368995720185881    0.909501302339705    0.860924774212390  0.0000
  O3     O3        0.108417901175004    0.161242591004658    0.848497346823403  0.0000
  O1     O1        0.575762311691116    0.798389628437654    0.093176707672020  0.0000
  O1     O1        0.922008768888502    0.272604111062826    0.083803318705606  0.0000
  O1     O1        0.477184421898772    0.068032990367614    0.031768271885482  0.0000
  O3     O3        0.020521248894148    0.005067481266026    0.022990573773541  0.0000
  O1     O1        0.151801211926095    0.483293342983491    0.320411355731272  0.0000
  O3     O3        0.339898069568260    0.548426055414121    0.305264822163709  0.0000
  O1     O1        0.830797380181190    0.575521811405172    0.622100086138927  0.0000
  O1     O1        0.645322562899070    0.498712640102171    0.630800857985890  0.0000
  O3     O3        0.268459901002556    0.260789384068811    0.247853838959439  0.0000
  O1     O1        0.229308238388122    0.793710819501682    0.265608015348803  0.0000
  O1     O1        0.757514917321839    0.262476347055359    0.687381007803235  0.0000
  O1     O1        0.723444314794412    0.810096979815838    0.686088457854379  0.0000
  O1     O1        0.133443680579985    0.284419098064804    0.100781529527648  0.0000
  O3     O3        0.355819564430947    0.784376267998561    0.096537317303040  0.0000
  O1     O1        0.877650302878823    0.401156754044556    0.840168426239320  0.0000
  O1     O1        0.609453465429599    0.672639816939989    0.848711622274092  0.0000
  O1     O1        0.852741480929819    0.791143361921578    0.844037434209090  0.0000
  O1     O1        0.634319008905459    0.280942087409825    0.854739317379363  0.0000
  O1     O1        0.113007646441039    0.677123062697504    0.099295832516384  0.0000
  O3     O3        0.377999184818757    0.378612715917403    0.099959068020880  0.0000
  O1     O1        0.656116505915949    0.492251704784206    0.069517267154534  0.0000
  O1     O1        0.841279065291607    0.578532500390521    0.062992263755843  0.0000
  O3     O3        0.335258747024548    0.584604998867115    0.890535175272190  0.0000
  O1     O1        0.146837228669145    0.505810625100428    0.878457305164609  0.0000
  O1     O1        0.768158210924563    0.263127899871222    0.005941242417965  0.0000
  O1     O1        0.726193634270996    0.809620861697673    0.005152348641176  0.0000
  O1     O1        0.257088624997399    0.269343512764831    0.934591314518584  0.0000
  O3     O3        0.233507027686788    0.804438353852821    0.950551830635523  0.0000
