data_c00970.vasp
_audit_creation_method             Generated by GULP
_audit_author_name                 Salvador R. G. Balestra
_symmetry_space_group_name_H-M     'P 1             '
_symmetry_Int_Tables_number        1

loop_
_symmetry_equiv_pos_site_id
_symmetry_equiv_pos_as_xyz
_cell_length_a                       17.6021
_cell_length_b                        7.8407
_cell_length_c                       10.0710
_cell_angle_alpha                   90.9052
_cell_angle_beta                    92.1329
_cell_angle_gamma                   92.3801

loop_
_atom_site_label
_atom_site_type_symbol
_atom_site_fract_x
_atom_site_fract_y
_atom_site_fract_z
_atom_site_charge
  Ge     Ge        0.052090000000021    0.000000000000000    0.372269999999958  0.0000
  Ge     Ge        0.452244093732574    0.074024708021446    0.371837257038900  0.0000
  Ge     Ge        0.936000603324788    0.037801000303019    0.609213970544725  0.0000
  Ge     Ge        0.546209141553397    0.006243988131795    0.103668706821157  0.0000
  Ge     Ge        0.951748100100811    0.062357694700144    0.107194280619563  0.0000
  Ge     Ge        0.432752934047701    0.052583949225209    0.845997844940485  0.0000
  Ge     Ge        0.172153286077422    0.288217449006492    0.293309162892230  0.0000
  Ge     Ge        0.327386048653455    0.781804800046538    0.288162685359578  0.0000
  Ge     Ge        0.837208470856306    0.344873399362352    0.721914421522390  0.0000
  Ge     Ge        0.632450149267667    0.681608622613426    0.729379356880007  0.0000
  Ge     Ge        0.818153889569649    0.746741832970836    0.716890029313667  0.0000
  Ge     Ge        0.147631319093135    0.689917028335824    0.297570536315233  0.0000
  Ge     Ge        0.352175381919738    0.376762502492991    0.290234588274990  0.0000
  Ge     Ge        0.826246911436837    0.768083272762874    0.036404158240564  0.0000
  Ge     Ge        0.346170767387792    0.368588998661146    0.967286992314300  0.0000
  Ge     Ge        0.133837307710505    0.681707164104208    0.976752630850254  0.0000
  Ge     Ge        0.316747003244729    0.769885469058697    0.967288580933308  0.0000
  Ge     Ge        0.163010204648204    0.281776753023095    0.970216156657261  0.0000
  Ge     Ge        0.641391160137221    0.689407756367900    0.045022272906449  0.0000
  Ge     Ge        0.847180125636330    0.367379826569505    0.056066712379998  0.0000
  Si     Si        0.545742823169359    0.998715096987061    0.624572326280123  0.0000
  Si     Si        0.046282051517754    0.989968362727154    0.855728074818574  0.0000
  Si     Si        0.662004480280083    0.294920369927499    0.734737153901920  0.0000
  Si     Si        0.672344761593421    0.306813049101689    0.053860716769431  0.0000
  O1     O1        0.124494496935121    0.153241996380558    0.396203641709916  0.0000
  O1     O1        0.380308696300839    0.921555395586686    0.389003206797655  0.0000
  O1     O1        0.904123157591394    0.236363107839884    0.641327854370212  0.0000
  O3     O3        0.572067501900412    0.806835152452169    0.635050758375356  0.0000
  O1     O1        0.860943423666320    0.894453203421171    0.617490196393180  0.0000
  O2     O2        0.606494313601346    0.131720198503391    0.699638303190699  0.0000
  O1     O1        0.087634081946797    0.801863186182817    0.394054168717318  0.0000
  O1     O1        0.416934992169477    0.272950888358999    0.387935553568332  0.0000
  O1     O1        0.970733620964953    0.036130274828164    0.451581388895446  0.0000
  O3     O3        0.532815933463550    0.043016150862771    0.470235434411869  0.0000
  O1     O1        0.027545196756982    0.013951998985412    0.203840061369481  0.0000
  O1     O1        0.477827314607752    0.057044013745284    0.208302407991015  0.0000
  O3     O3        0.016413413648890    0.987543827839648    0.703221131079436  0.0000
  O3     O3        0.463579244855424    0.026989764080817    0.685287593615758  0.0000
  O3     O3        0.620117311703909    0.160515172923780    0.111166544325814  0.0000
  O1     O1        0.873971389137941    0.925739275800955    0.126391142574153  0.0000
  O1     O1        0.409063409217219    0.259658314248069    0.875468143792302  0.0000
  O3     O3        0.066527176666045    0.797529029248008    0.892935925961542  0.0000
  O1     O1        0.353762953110124    0.922156426322672    0.866288188050293  0.0000
  O3     O3        0.119823903961024    0.117869381384785    0.875088576987989  0.0000
  O1     O1        0.585661365438710    0.814194251822471    0.139006190293509  0.0000
  O1     O1        0.918351163144904    0.262934009924821    0.135124713838917  0.0000
  O1     O1        0.507917993504724    0.994912571826134    0.945162138208023  0.0000
  O3     O3        0.978427186260942    0.055676180712849    0.942515998854290  0.0000
  O1     O1        0.163369788415525    0.492501495859522    0.357388228484314  0.0000
  O1     O1        0.340070778979020    0.578501327051592    0.347225798955184  0.0000
  O1     O1        0.835546194652556    0.545999417596378    0.659391006162509  0.0000
  O3     O3        0.633610876703482    0.469501714755396    0.671135557629887  0.0000
  O1     O1        0.267693501231811    0.255438539234393    0.288615528264768  0.0000
  O1     O1        0.231429518171579    0.812187774427018    0.289549262728376  0.0000
  O3     O3        0.745779476617006    0.251945482582798    0.692985480203251  0.0000
  O1     O1        0.721982509266684    0.771433132767802    0.718432316917593  0.0000
  O1     O1        0.135330850811808    0.272255637489644    0.131888991750396  0.0000
  O1     O1        0.355996004915954    0.795005681985911    0.126260705456629  0.0000
  O1     O1        0.859926032630097    0.351749151807790    0.887733028828448  0.0000
  O1     O1        0.600422299200578    0.684500278197353    0.886622910652538  0.0000
  O1     O1        0.856018293288750    0.775265821875698    0.875324454374780  0.0000
  O2     O2        0.665683567221945    0.335386409217077    0.893707924097666  0.0000
  O1     O1        0.109026820742174    0.661535044208631    0.138572254869803  0.0000
  O1     O1        0.380708685979113    0.387762067093556    0.128694825343450  0.0000
  O3     O3        0.649172700376650    0.489952642807305    0.112952249267156  0.0000
  O1     O1        0.848414195730604    0.575591824071526    0.105248827399267  0.0000
  O1     O1        0.334703160251831    0.569234006867988    0.906835614436747  0.0000
  O1     O1        0.140227354958575    0.479524252436949    0.910332678161946  0.0000
  O3     O3        0.759196163890757    0.271458063895132    0.090345322184325  0.0000
  O1     O1        0.729970375507044    0.787315283504897    0.032711578106180  0.0000
  O1     O1        0.259181718503872    0.259653655949020    0.965694599387222  0.0000
  O1     O1        0.220608153730857    0.789256619863198    0.974383891713678  0.0000
