data_c00995.vasp
_audit_creation_method             Generated by GULP
_audit_author_name                 Salvador R. G. Balestra
_symmetry_space_group_name_H-M     'P 1             '
_symmetry_Int_Tables_number        1

loop_
_symmetry_equiv_pos_site_id
_symmetry_equiv_pos_as_xyz
_cell_length_a                       17.4694
_cell_length_b                        7.8299
_cell_length_c                       10.3529
_cell_angle_alpha                   89.3376
_cell_angle_beta                    90.1464
_cell_angle_gamma                   91.6980

loop_
_atom_site_label
_atom_site_type_symbol
_atom_site_fract_x
_atom_site_fract_y
_atom_site_fract_z
_atom_site_charge
  Ge     Ge        0.052090000000021    0.000000000000000    0.372269999999958  0.0000
  Ge     Ge        0.449763868642704    0.052452164681879    0.382583210795241  0.0000
  Ge     Ge        0.952394667491739    0.061660060475222    0.628792453614653  0.0000
  Ge     Ge        0.556498054300003    0.986862517448325    0.132263904584272  0.0000
  Ge     Ge        0.944954139677400    0.052425070794587    0.126720575612834  0.0000
  Ge     Ge        0.057646883786559    0.009104157513894    0.885342606995779  0.0000
  Ge     Ge        0.177220103087693    0.287075394086412    0.258708427330039  0.0000
  Ge     Ge        0.327871410449834    0.769391779055489    0.269879175076799  0.0000
  Ge     Ge        0.849615481017836    0.368767382371029    0.695541340499042  0.0000
  Ge     Ge        0.644236492876566    0.690696023502235    0.707233940639969  0.0000
  Ge     Ge        0.827308427944294    0.772894966625825    0.704267175494520  0.0000
  Ge     Ge        0.668092742041413    0.287969520941378    0.703439671091214  0.0000
  Ge     Ge        0.144100851836874    0.687160096891158    0.259860336409208  0.0000
  Ge     Ge        0.359229349534244    0.368848331138427    0.266412996566032  0.0000
  Ge     Ge        0.676391084895100    0.274194768375509    0.018324562009323  0.0000
  Ge     Ge        0.828728424328006    0.755760276635649    0.015160270807558  0.0000
  Ge     Ge        0.358035637886006    0.370503809179497    0.951817447303776  0.0000
  Ge     Ge        0.153548602870339    0.690962121401999    0.949198840434297  0.0000
  Ge     Ge        0.337457567279797    0.771026254619493    0.958771035793235  0.0000
  Ge     Ge        0.645553617549289    0.671853823572847    0.019900517447877  0.0000
  Si     Si        0.548662000923859    0.003283384218802    0.635081234568580  0.0000
  Si     Si        0.454070492278860    0.063557486690183    0.883428433096665  0.0000
  Si     Si        0.178576347055552    0.298181637747925    0.951435607912517  0.0000
  Si     Si        0.854152262398111    0.360236801351427    0.004234663198468  0.0000
  O1     O1        0.131400489120879    0.127720328402529    0.342732218391720  0.0000
  O1     O1        0.370563254193057    0.921661489872471    0.364567620362927  0.0000
  O1     O1        0.916079597183034    0.262301018461093    0.609490835349938  0.0000
  O3     O3        0.580052180576909    0.813989859655628    0.621746139552589  0.0000
  O1     O1        0.877887371272744    0.915048793728073    0.609307772370180  0.0000
  O3     O3        0.616779783279037    0.142501917187345    0.610477059062531  0.0000
  O1     O1        0.076169341460746    0.792506775158591    0.344811982136831  0.0000
  O1     O1        0.426574755995038    0.259964346403408    0.351722316813286  0.0000
  O1     O1        0.027976089341035    0.021688905026455    0.532547801423195  0.0000
  O3     O3        0.478080544972277    0.033981365255465    0.542409616094905  0.0000
  O1     O1        0.973577802895578    0.061609428564255    0.285587312324735  0.0000
  O1     O1        0.524506037571915    0.994438629848448    0.287485443105829  0.0000
  O1     O1        0.982777852662405    0.050763231387207    0.787624758751019  0.0000
  O2     O2        0.522431872194929    0.029167370939741    0.784589749523789  0.0000
  O1     O1        0.637414240823893    0.114833991740002    0.112114158337046  0.0000
  O1     O1        0.873929241323130    0.897544262919588    0.115579113665557  0.0000
  O3     O3        0.419693494622067    0.250092671910269    0.862455027707908  0.0000
  O1     O1        0.095374722534513    0.812247749585842    0.854766726268127  0.0000
  O3     O3        0.386538673482418    0.922086275521353    0.866560112507746  0.0000
  O3     O3        0.131591530004033    0.161940961110752    0.867299382884723  0.0000
  O1     O1        0.578864446264566    0.778907300995608    0.105000364876954  0.0000
  O3     O3        0.917529806739323    0.254838711056141    0.079636986111137  0.0000
  O3     O3        0.485673020740363    0.057171955881633    0.029496695451927  0.0000
  O1     O1        0.024834570968040    0.001006363210561    0.041940995866736  0.0000
  O1     O1        0.156058400403102    0.484126691874694    0.319452953564330  0.0000
  O1     O1        0.345470100483374    0.566986183045355    0.328525297788564  0.0000
  O1     O1        0.839303029717303    0.572311900016487    0.640711506860511  0.0000
  O1     O1        0.653353815490316    0.491782821183902    0.643619517884901  0.0000
  O1     O1        0.273345765350871    0.255002480922861    0.268011237781281  0.0000
  O1     O1        0.231269238755154    0.796816331126014    0.265297754336093  0.0000
  O1     O1        0.764312369810387    0.253357963585317    0.690683368483093  0.0000
  O1     O1        0.730561071205130    0.803374810731643    0.707964728718214  0.0000
  O3     O3        0.147932502347933    0.288586596362862    0.098205525672392  0.0000
  O1     O1        0.367029678519157    0.784887267670656    0.117092268324838  0.0000
  O3     O3        0.878070414876649    0.388384091429613    0.855904024629004  0.0000
  O1     O1        0.614178158990337    0.657996148051805    0.862883790067017  0.0000
  O1     O1        0.861579529180211    0.788882803262941    0.860485713070891  0.0000
  O1     O1        0.642106547626426    0.269954822743594    0.862881339034042  0.0000
  O1     O1        0.115637158780086    0.676599291414590    0.101630309360751  0.0000
  O1     O1        0.388476954752672    0.389354424782287    0.108535946611882  0.0000
  O1     O1        0.656139577473979    0.470226067030020    0.081728437416615  0.0000
  O3     O3        0.844185892383488    0.545956376111902    0.065314726383125  0.0000
  O1     O1        0.354091790292807    0.573820739300635    0.892648064496040  0.0000
  O3     O3        0.166139242778621    0.487518092265367    0.891915842668592  0.0000
  O3     O3        0.774568804837658    0.250886103361023    0.011510284359129  0.0000
  O1     O1        0.731997492145038    0.783335051498431    0.019369153367550  0.0000
  O3     O3        0.268935162023569    0.265701606221220    0.952159630418024  0.0000
  O1     O1        0.240939967599608    0.798000759700021    0.958248572290649  0.0000
