data_c00954.vasp
_audit_creation_method             Generated by GULP
_audit_author_name                 Salvador R. G. Balestra
_symmetry_space_group_name_H-M     'P 1             '
_symmetry_Int_Tables_number        1

loop_
_symmetry_equiv_pos_site_id
_symmetry_equiv_pos_as_xyz
_cell_length_a                       17.5535
_cell_length_b                        7.8078
_cell_length_c                       10.2532
_cell_angle_alpha                   90.2832
_cell_angle_beta                    90.7754
_cell_angle_gamma                   91.1491

loop_
_atom_site_label
_atom_site_type_symbol
_atom_site_fract_x
_atom_site_fract_y
_atom_site_fract_z
_atom_site_charge
  Ge     Ge        0.052090000000021    0.000000000000000    0.372269999999958  0.0000
  Ge     Ge        0.444089591627481    0.050921354413549    0.378276659896864  0.0000
  Ge     Ge        0.946152918252955    0.031782299957521    0.624777575712269  0.0000
  Ge     Ge        0.550778106280893    0.982587658466861    0.130386822002170  0.0000
  Ge     Ge        0.939333453635379    0.041375380332515    0.126358851499049  0.0000
  Ge     Ge        0.445152579416685    0.044609628790120    0.874132937709306  0.0000
  Ge     Ge        0.168351590400225    0.294387497595392    0.269134766934167  0.0000
  Ge     Ge        0.321335853763209    0.768117875224973    0.260551171723713  0.0000
  Ge     Ge        0.844869611373884    0.344749002293140    0.693636257677927  0.0000
  Ge     Ge        0.639642732811646    0.671848455859232    0.697539511452326  0.0000
  Ge     Ge        0.821380674506130    0.750561895989891    0.699317270152037  0.0000
  Ge     Ge        0.664184747758191    0.267440088388033    0.696312431797592  0.0000
  Ge     Ge        0.351297624017010    0.366020186420980    0.264637040614792  0.0000
  Ge     Ge        0.670650528545508    0.264755547488114    0.013883150927435  0.0000
  Ge     Ge        0.822322266984814    0.745347493862988    0.014081508375724  0.0000
  Ge     Ge        0.342520314790317    0.351335047034613    0.947138394193277  0.0000
  Ge     Ge        0.141826656077515    0.675624108680922    0.943566371682796  0.0000
  Ge     Ge        0.320780491347700    0.757677830986331    0.943669152523779  0.0000
  Ge     Ge        0.161348495584453    0.270619553396821    0.955208962595646  0.0000
  Ge     Ge        0.640599053362978    0.665301174066615    0.014395006868302  0.0000
  Si     Si        0.544973628022275    0.984225690354561    0.626561880071957  0.0000
  Si     Si        0.042628505654004    0.981811417541298    0.882806833240151  0.0000
  Si     Si        0.144154835208241    0.687952738589418    0.255016691165566  0.0000
  Si     Si        0.847324947205450    0.347397528806788    0.004535770313459  0.0000
  O1     O1        0.122679994375962    0.153385063896847    0.370038815162696  0.0000
  O1     O1        0.363627039018471    0.927456383266423    0.350729226005857  0.0000
  O1     O1        0.911221437207807    0.234890638792260    0.608145323807968  0.0000
  O3     O3        0.575630430519951    0.793447787730047    0.608106362027239  0.0000
  O1     O1        0.871261425733541    0.888922568857850    0.602684112909900  0.0000
  O3     O3        0.612335477395540    0.122567819062414    0.600759594803733  0.0000
  O3     O3        0.081126368078376    0.798366695983466    0.326014113359805  0.0000
  O1     O1        0.419485400144713    0.259135327819245    0.351801865255569  0.0000
  O1     O1        0.022100312718924    0.988378550428509    0.531605365755302  0.0000
  O3     O3        0.471138185026232    0.021909229152464    0.540237874859076  0.0000
  O1     O1        0.972612324551790    0.054769117146374    0.283871320304142  0.0000
  O1     O1        0.520659805389174    0.991755894076522    0.288619836672243  0.0000
  O3     O3        0.972475624130129    0.016663755936778    0.789004379413659  0.0000
  O3     O3        0.522083420036128    0.006517158818684    0.778391384421933  0.0000
  O1     O1        0.630741421913766    0.109943348501256    0.108595054460754  0.0000
  O1     O1        0.868848865328187    0.886784147884215    0.116523305749427  0.0000
  O1     O1        0.404564491214631    0.240924661920955    0.852538766475555  0.0000
  O3     O3        0.074470123827332    0.791377028590349    0.859991832019315  0.0000
  O1     O1        0.374839054275276    0.890634047716427    0.850155388212485  0.0000
  O3     O3        0.110333905408741    0.121939820931187    0.862968996149648  0.0000
  O1     O1        0.573272071359741    0.773708657433801    0.098313550724050  0.0000
  O3     O3        0.909622543489569    0.244294155498127    0.085064526604338  0.0000
  O1     O1        0.476801963189183    0.047831254583228    0.033952139380026  0.0000
  O3     O3        0.016416303962228    0.988576136233484    0.032773250548267  0.0000
  O3     O3        0.155193650663017    0.504263256759728    0.322284308237407  0.0000
  O1     O1        0.343032242972704    0.571079801171374    0.323048598256221  0.0000
  O1     O1        0.833298782095971    0.546910610798140    0.636974442833090  0.0000
  O1     O1        0.648942417610118    0.470358978954891    0.635001749135463  0.0000
  O1     O1        0.264339741912694    0.260534099027887    0.272052447238152  0.0000
  O3     O3        0.223616306950921    0.795522792539605    0.258751173775019  0.0000
  O1     O1        0.759799515374710    0.230163012927558    0.687231810695752  0.0000
  O1     O1        0.725072586964737    0.784109934431911    0.699407634617582  0.0000
  O1     O1        0.132203536938782    0.260295800790584    0.114540459294647  0.0000
  O1     O1        0.352794126105066    0.779489572928290    0.102750346368320  0.0000
  O3     O3        0.872906410977765    0.369391394590967    0.855837408853852  0.0000
  O1     O1        0.610002224639469    0.646275528114200    0.854816204192742  0.0000
  O1     O1        0.853953568665778    0.771599668316695    0.858117192397362  0.0000
  O1     O1        0.636225180489478    0.254706012373067    0.856160803731299  0.0000
  O3     O3        0.120027372988744    0.647183902177145    0.106622063244646  0.0000
  O1     O1        0.377199094318576    0.375998926136208    0.104132125440815  0.0000
  O1     O1        0.650869860634892    0.463629910673457    0.076489408015969  0.0000
  O3     O3        0.835924632889073    0.534999923895439    0.064868215789150  0.0000
  O1     O1        0.328764869345167    0.550815768770811    0.886384662345529  0.0000
  O1     O1        0.147873354922454    0.470866107215199    0.886941828365426  0.0000
  O3     O3        0.768186301532779    0.238535530158381    0.007562076750099  0.0000
  O1     O1        0.726065445143597    0.777202010843832    0.018284932305568  0.0000
  O1     O1        0.257559265455254    0.236063020733531    0.953834854867528  0.0000
  O1     O1        0.225000939662112    0.794681064384791    0.935829725351827  0.0000
