data_c00942.vasp
_audit_creation_method             Generated by GULP
_audit_author_name                 Salvador R. G. Balestra
_symmetry_space_group_name_H-M     'P 1             '
_symmetry_Int_Tables_number        1

loop_
_symmetry_equiv_pos_site_id
_symmetry_equiv_pos_as_xyz
_cell_length_a                       17.5117
_cell_length_b                        7.7996
_cell_length_c                       10.3413
_cell_angle_alpha                   90.0862
_cell_angle_beta                    90.2928
_cell_angle_gamma                   91.5934

loop_
_atom_site_label
_atom_site_type_symbol
_atom_site_fract_x
_atom_site_fract_y
_atom_site_fract_z
_atom_site_charge
  Ge     Ge        0.052090000000021    0.000000000000000    0.372269999999958  0.0000
  Ge     Ge        0.446174966498361    0.057143363729973    0.345770773250763  0.0000
  Ge     Ge        0.948596613705681    0.051891311925912    0.627036434223073  0.0000
  Ge     Ge        0.546049873084960    0.990226492197575    0.086421372744748  0.0000
  Ge     Ge        0.947861996887766    0.057169211288828    0.119884783621964  0.0000
  Ge     Ge        0.437691074723928    0.044841927077209    0.834952392561204  0.0000
  Ge     Ge        0.173267493895659    0.285201463287479    0.261873557674697  0.0000
  Ge     Ge        0.323953079210604    0.778777366520248    0.250571168099947  0.0000
  Ge     Ge        0.846817174030077    0.367154589975264    0.688531120169420  0.0000
  Ge     Ge        0.638107996717364    0.689224675536158    0.703623204051674  0.0000
  Ge     Ge        0.820803363871941    0.768816908713372    0.695368138955278  0.0000
  Ge     Ge        0.665176019634559    0.285802575775055    0.699772063544538  0.0000
  Ge     Ge        0.143891397481373    0.686981849339980    0.251858414593713  0.0000
  Ge     Ge        0.354152465725708    0.368665111621101    0.256424818778752  0.0000
  Ge     Ge        0.672749056491769    0.275830091110536    0.015850459703978  0.0000
  Ge     Ge        0.824264048261101    0.770495009096206    0.009474675661757  0.0000
  Ge     Ge        0.146346834312629    0.678754950910404    0.936699123187536  0.0000
  Ge     Ge        0.166790671682379    0.281481276114150    0.950416293734150  0.0000
  Ge     Ge        0.644267073101770    0.677455649185221    0.017760054153509  0.0000
  Ge     Ge        0.852457625086619    0.367095183526275    0.005662714976402  0.0000
  Si     Si        0.544381149316968    0.998466809612383    0.595825758362047  0.0000
  Si     Si        0.050281935378504    0.989137537639414    0.876718823809343  0.0000
  Si     Si        0.347745377595078    0.354580384612246    0.954462308214294  0.0000
  Si     Si        0.325388909498327    0.753071992268299    0.945891891894158  0.0000
  O1     O1        0.129582325303124    0.136704908504238    0.359141185966468  0.0000
  O1     O1        0.368933110591096    0.916750397477757    0.355304939633494  0.0000
  O1     O1        0.914697118289363    0.254727884917771    0.607847497141637  0.0000
  O3     O3        0.568502698003848    0.806074404000929    0.627074397294493  0.0000
  O1     O1        0.871893740424200    0.913219220648472    0.604072867262390  0.0000
  O3     O3        0.615443108691615    0.129001975595925    0.614793473810934  0.0000
  O1     O1        0.075194006575621    0.793970484271697    0.333244155548828  0.0000
  O1     O1        0.417675900414364    0.265108877235342    0.354156697245030  0.0000
  O1     O1        0.023282757776679    0.006783201372385    0.530851900524036  0.0000
  O3     O3        0.520379210893195    0.008835432907139    0.445394842653799  0.0000
  O1     O1        0.977152616885909    0.062859952230563    0.278026868066387  0.0000
  O1     O1        0.473421733917829    0.026836615510442    0.187164425771958  0.0000
  O3     O3        0.979501130448900    0.031974652601400    0.787317105435338  0.0000
  O3     O3        0.469882204661555    0.050070627345898    0.676458068627527  0.0000
  O1     O1        0.622466352927862    0.132691867697524    0.107824832435135  0.0000
  O1     O1        0.870567038895474    0.919379420249531    0.104613044489207  0.0000
  O3     O3        0.400466673475959    0.246393246784006    0.860865116511102  0.0000
  O3     O3        0.083794068401626    0.801929495027327    0.849440017465688  0.0000
  O3     O3        0.369773675474905    0.879717459937578    0.849251886442764  0.0000
  O3     O3        0.120278059681365    0.126234178803246    0.859136023096686  0.0000
  O1     O1        0.579280956281925    0.786460736301802    0.106150751603513  0.0000
  O1     O1        0.924243438184849    0.262941028806841    0.081745148120808  0.0000
  O1     O1        0.515645729674997    0.011293032097450    0.927984539418735  0.0000
  O3     O3        0.023037400311088    0.990312081050485    0.025835336984747  0.0000
  O1     O1        0.158617541163471    0.489923280885837    0.318587907457239  0.0000
  O1     O1        0.342567216412360    0.573760177269987    0.303846107175451  0.0000
  O1     O1        0.834351759529500    0.568279397204638    0.629170775266919  0.0000
  O1     O1        0.647271079592060    0.487116645590322    0.639461295857779  0.0000
  O1     O1        0.269280405156879    0.252585858229255    0.260993271926401  0.0000
  O1     O1        0.227801273035726    0.808634952430949    0.253856257751141  0.0000
  O1     O1        0.761268102220205    0.252009185721628    0.686619924385250  0.0000
  O1     O1        0.724217338024744    0.800658662677824    0.695019325288653  0.0000
  O1     O1        0.135934060155786    0.267267862278971    0.107444781067313  0.0000
  O3     O3        0.355354065631461    0.792530559437871    0.090653094010639  0.0000
  O1     O1        0.875403188063553    0.394422579055949    0.846338235537450  0.0000
  O1     O1        0.611885170175266    0.657880431068789    0.860600961148038  0.0000
  O1     O1        0.854384467413297    0.785336767048603    0.851865064613574  0.0000
  O1     O1        0.639394429266451    0.271938009247904    0.858805443680430  0.0000
  O1     O1        0.117381105799406    0.654478547746627    0.093774327674277  0.0000
  O3     O3        0.385029058731313    0.359174135434746    0.096412905019436  0.0000
  O1     O1        0.660029393937888    0.479225183661194    0.078529210440150  0.0000
  O1     O1        0.840293432921873    0.567388397382034    0.068726913370499  0.0000
  O2     O2        0.338275713684521    0.552494156745310    0.909087925055282  0.0000
  O1     O1        0.148388958627474    0.474808927483833    0.877563472303490  0.0000
  O1     O1        0.769214129611961    0.243491774640718    0.015957163773798  0.0000
  O1     O1        0.727728499744703    0.800136577944440    0.011380735278553  0.0000
  O3     O3        0.264806247285852    0.260933733737930    0.957611901163254  0.0000
  O3     O3        0.235358629101449    0.782344927943824    0.937442771411715  0.0000
