data_c00912.vasp
_audit_creation_method             Generated by GULP
_audit_author_name                 Salvador R. G. Balestra
_symmetry_space_group_name_H-M     'P 1             '
_symmetry_Int_Tables_number        1

loop_
_symmetry_equiv_pos_site_id
_symmetry_equiv_pos_as_xyz
_cell_length_a                       17.6899
_cell_length_b                        7.8189
_cell_length_c                       10.2953
_cell_angle_alpha                   92.1088
_cell_angle_beta                    89.6115
_cell_angle_gamma                   89.0022

loop_
_atom_site_label
_atom_site_type_symbol
_atom_site_fract_x
_atom_site_fract_y
_atom_site_fract_z
_atom_site_charge
  Ge     Ge        0.052090000000021    0.000000000000000    0.372269999999958  0.0000
  Ge     Ge        0.443952352279648    0.023734374137364    0.388292394026590  0.0000
  Ge     Ge        0.954282747355546    0.936679569468633    0.627723765775777  0.0000
  Ge     Ge        0.553210757990113    0.013060445533075    0.132844820288653  0.0000
  Ge     Ge        0.934961955677061    0.975608002265024    0.143321396098825  0.0000
  Ge     Ge        0.451345766065910    0.981573900315470    0.880158122077888  0.0000
  Ge     Ge        0.049426827616496    0.972509574134754    0.903337317190343  0.0000
  Ge     Ge        0.159671655502384    0.304288826365608    0.282439698332145  0.0000
  Ge     Ge        0.829307931472774    0.226997331080734    0.703189658532176  0.0000
  Ge     Ge        0.668123277859340    0.706573227428937    0.699134094217981  0.0000
  Ge     Ge        0.848857749728519    0.635567579237594    0.698784187558262  0.0000
  Ge     Ge        0.648680138374337    0.300023766578166    0.697319662169363  0.0000
  Ge     Ge        0.346691120636829    0.333695006267761    0.285402777262502  0.0000
  Ge     Ge        0.639161486435106    0.328650169005717    0.011628347397662  0.0000
  Ge     Ge        0.852669412887154    0.648600309440244    0.014847632580036  0.0000
  Ge     Ge        0.352405736159150    0.299925775712867    0.974622186362529  0.0000
  Ge     Ge        0.327339314971435    0.718463496774204    0.958718505949736  0.0000
  Ge     Ge        0.167300485307561    0.262019631665518    0.964862257092046  0.0000
  Ge     Ge        0.671734102720820    0.729500476349278    0.015739006748905  0.0000
  Ge     Ge        0.820181920694770    0.244967577515964    0.017778340635810  0.0000
  Si     Si        0.551962862950216    0.987208622785273    0.625656755826068  0.0000
  Si     Si        0.329014937083405    0.743027118828899    0.267604494505551  0.0000
  Si     Si        0.159387488917193    0.688519628773666    0.261630019673804  0.0000
  Si     Si        0.157192926156061    0.651531171965106    0.954809404870540  0.0000
  O1     O1        0.104808443173994    0.180134516714783    0.378338946005862  0.0000
  O3     O3        0.373320168996957    0.879209532390342    0.354256908064930  0.0000
  O1     O1        0.885137828634869    0.092053781233291    0.608110608433337  0.0000
  O3     O3        0.616442314613236    0.841187991034463    0.601170329746858  0.0000
  O1     O1        0.912503663592541    0.741613512597668    0.606363237456369  0.0000
  O3     O3        0.587449514025687    0.172767437890968    0.606796494610289  0.0000
  O3     O3        0.099523293624548    0.839810283406322    0.279453343349808  0.0000
  O1     O1        0.403787054668318    0.225469723420360    0.390016486127201  0.0000
  O1     O1        0.032275370086534    0.950229327364195    0.529512763781344  0.0000
  O3     O3        0.477559646835608    0.970623131722051    0.539567222961492  0.0000
  O1     O1        0.965196354384579    0.010820346761926    0.300102249632272  0.0000
  O1     O1        0.521581480808360    0.005112176037096    0.289576036595142  0.0000
  O1     O1        0.982937417726799    0.960852774541984    0.786533707131093  0.0000
  O3     O3        0.526262623552085    0.963064151955218    0.774586810119481  0.0000
  O1     O1        0.572455221241916    0.221408047718243    0.096050589830278  0.0000
  O1     O1        0.916107520464735    0.764198772115313    0.105968834850932  0.0000
  O1     O1        0.414422138543724    0.185881312030180    0.876872997898407  0.0000
  O3     O3        0.086310140345834    0.766761920533703    0.923291280342303  0.0000
  O1     O1        0.378648147792227    0.840224038882307    0.858065311408564  0.0000
  O1     O1        0.120371587058650    0.111626509986310    0.872991492599326  0.0000
  O1     O1        0.633557288794160    0.888492410782585    0.114173258638658  0.0000
  O1     O1        0.855599808849878    0.098770585820857    0.121079243507604  0.0000
  O1     O1        0.486232943914982    0.932111159302832    0.029956423852276  0.0000
  O1     O1        0.006365115627989    0.043657628745204    0.044920891362654  0.0000
  O3     O3        0.133056608841142    0.515990523761232    0.325019005408334  0.0000
  O3     O3        0.361564457161422    0.552403276015863    0.287164794941196  0.0000
  O1     O1        0.838338937436772    0.429462054462452    0.644064188594263  0.0000
  O1     O1        0.657626202588184    0.499593775650830    0.637164580032280  0.0000
  O1     O1        0.254105780852027    0.288456483624968    0.316417256116790  0.0000
  O2     O2        0.240836404346363    0.749489626733030    0.316043958504537  0.0000
  O1     O1        0.733729228770115    0.189286769523973    0.699126849225708  0.0000
  O1     O1        0.763443307107821    0.746073842820574    0.695961547629434  0.0000
  O1     O1        0.141872134765184    0.239881206227861    0.125272767007258  0.0000
  O3     O3        0.333655685030372    0.796061059057524    0.118456582257003  0.0000
  O1     O1        0.857135854044556    0.217359858363350    0.862915667527073  0.0000
  O1     O1        0.639132954038333    0.727879120238172    0.858488292734700  0.0000
  O1     O1        0.881899860366407    0.630340901328449    0.855778725920287  0.0000
  O1     O1        0.612673061077249    0.332561517842169    0.851629015605808  0.0000
  O2     O2        0.174004296236058    0.627458417986926    0.109997716369907  0.0000
  O1     O1        0.373031415089121    0.255788040358819    0.133548792679161  0.0000
  O1     O1        0.650237229306566    0.531631020928808    0.075051407107670  0.0000
  O1     O1        0.841152148003167    0.449311985002052    0.074529479095545  0.0000
  O1     O1        0.360811995063179    0.512107473932054    0.947716149083176  0.0000
  O3     O3        0.143300202894027    0.459570338324921    0.902823002434285  0.0000
  O1     O1        0.724593915637707    0.220187089597957    0.011618717018326  0.0000
  O1     O1        0.767318134723751    0.756944913951421    0.014603887589112  0.0000
  O1     O1        0.262250712490162    0.230002149525302    0.947029410000021  0.0000
  O3     O3        0.234843737393513    0.727409799487835    0.902390783743878  0.0000
