data_c00963.vasp
_audit_creation_method             Generated by GULP
_audit_author_name                 Salvador R. G. Balestra
_symmetry_space_group_name_H-M     'P 1             '
_symmetry_Int_Tables_number        1

loop_
_symmetry_equiv_pos_site_id
_symmetry_equiv_pos_as_xyz
_cell_length_a                       17.5481
_cell_length_b                        7.8234
_cell_length_c                       10.2330
_cell_angle_alpha                   90.0663
_cell_angle_beta                    91.2727
_cell_angle_gamma                   91.6629

loop_
_atom_site_label
_atom_site_type_symbol
_atom_site_fract_x
_atom_site_fract_y
_atom_site_fract_z
_atom_site_charge
  Ge     Ge        0.052090000000021    0.000000000000000    0.372269999999958  0.0000
  Ge     Ge        0.449686557174348    0.056114185237476    0.339996021218854  0.0000
  Ge     Ge        0.944614563109831    0.039418438051033    0.622989303073641  0.0000
  Ge     Ge        0.547693250842968    0.979057953519719    0.080953057800619  0.0000
  Ge     Ge        0.943763487281254    0.042783490584285    0.118401558470169  0.0000
  Ge     Ge        0.441022243383156    0.043014059512193    0.822225530785060  0.0000
  Ge     Ge        0.173037985023745    0.284518293686482    0.262835511078165  0.0000
  Ge     Ge        0.325129810906502    0.773038252195648    0.254912306587297  0.0000
  Ge     Ge        0.841247101242156    0.350716649831620    0.686027533845702  0.0000
  Ge     Ge        0.638262039226828    0.677139596724782    0.702990550719472  0.0000
  Ge     Ge        0.822107114635918    0.751183716451345    0.694134397475026  0.0000
  Ge     Ge        0.144059693501904    0.685068808205662    0.255342924620294  0.0000
  Ge     Ge        0.353994397746639    0.368712385607795    0.259241422214606  0.0000
  Ge     Ge        0.673795788353157    0.267890862921844    0.011666265854698  0.0000
  Ge     Ge        0.826429014737915    0.743469648199711    0.008930241367336  0.0000
  Ge     Ge        0.347725300013402    0.353413690132198    0.942294185750569  0.0000
  Ge     Ge        0.139563401872561    0.671538456906331    0.938902651631728  0.0000
  Ge     Ge        0.320942020438217    0.759308662116891    0.938604804156654  0.0000
  Ge     Ge        0.165089621833116    0.271109921887157    0.946453954856771  0.0000
  Ge     Ge        0.643812520217054    0.665331862643939    0.017758732384780  0.0000
  Si     Si        0.549339431710316    0.992088867718867    0.588159030382531  0.0000
  Si     Si        0.045430438003749    0.981883967746367    0.876061160568244  0.0000
  Si     Si        0.663922966897821    0.282109406566649    0.698251897608483  0.0000
  Si     Si        0.849434700808875    0.347280203359924    0.000548703914593  0.0000
  O1     O1        0.129174350645721    0.137275297735518    0.361089994898964  0.0000
  O1     O1        0.374075779425475    0.913756557487358    0.355665493706441  0.0000
  O1     O1        0.906258414971403    0.237909805250677    0.603574997446467  0.0000
  O3     O3        0.575185738585861    0.800096164029421    0.613494571511381  0.0000
  O1     O1        0.870414830343023    0.894536267643253    0.598580566528880  0.0000
  O2     O2        0.615868228509686    0.131060379244052    0.625162951100802  0.0000
  O1     O1        0.077208974876559    0.794956931948646    0.337520756604011  0.0000
  O1     O1        0.418674804667206    0.260290334429490    0.354249577519166  0.0000
  O1     O1        0.021512975359272    0.005805159738975    0.531101175312138  0.0000
  O3     O3        0.528465699306202    0.011548368398170    0.435248777846352  0.0000
  O1     O1        0.975930380618051    0.061397683583331    0.276980475832704  0.0000
  O1     O1        0.476398926290710    0.032629697331004    0.179004033499257  0.0000
  O3     O3        0.973409912213460    0.023675316786610    0.786596070738068  0.0000
  O3     O3        0.472131099364060    0.032698728794921    0.662515702712941  0.0000
  O1     O1        0.626818502100136    0.116161432580518    0.097187674561349  0.0000
  O1     O1        0.873572562872332    0.886448510103792    0.110399231520581  0.0000
  O1     O1        0.412152539271193    0.246917184458610    0.852191722180283  0.0000
  O3     O3        0.075348688957542    0.792035912585831    0.849733138908646  0.0000
  O1     O1        0.364266689922068    0.904466627561237    0.838565355489538  0.0000
  O3     O3        0.114421145256631    0.119392242409300    0.855281303616470  0.0000
  O1     O1        0.581155086436568    0.777514599483209    0.108276502688402  0.0000
  O3     O3        0.915237907098325    0.244376517794864    0.072209192199456  0.0000
  O1     O1        0.516151137205008    0.989454755563282    0.920654330851634  0.0000
  O3     O3        0.021140329140855    0.987336948645132    0.027468335158104  0.0000
  O1     O1        0.159487831602399    0.487694397911842    0.322175913941574  0.0000
  O1     O1        0.341251046703985    0.570131470382016    0.314865628117538  0.0000
  O1     O1        0.836183989767517    0.552449316479722    0.627068875642359  0.0000
  O3     O3        0.645641947683538    0.469618870602295    0.641799435002027  0.0000
  O1     O1        0.268994663021391    0.252021866868089    0.258700848801361  0.0000
  O1     O1        0.228742137603306    0.803646154639350    0.254962023240947  0.0000
  O3     O3        0.752559874210747    0.245797109384249    0.680322718686598  0.0000
  O1     O1        0.725809868048060    0.779100993836351    0.697059634587307  0.0000
  O1     O1        0.136425922106636    0.264233900036219    0.105857737320434  0.0000
  O1     O1        0.356586868058497    0.784514695835249    0.096237303919252  0.0000
  O3     O3        0.868084085678198    0.372780345468552    0.849100562349722  0.0000
  O1     O1        0.607754848104614    0.660938233861771    0.858924438668201  0.0000
  O1     O1        0.857169137143062    0.770499976547422    0.852376890815437  0.0000
  O3     O3        0.642658217003986    0.278522395024370    0.849868363670614  0.0000
  O1     O1        0.112539760522100    0.647454326608011    0.098048220277305  0.0000
  O1     O1        0.382844689434097    0.375859072553679    0.099679260619326  0.0000
  O1     O1        0.654581112808554    0.464677102515224    0.077675868579826  0.0000
  O3     O3        0.840788213974542    0.534378526261549    0.061893336254274  0.0000
  O1     O1        0.334846871074449    0.554966995737675    0.882421747387216  0.0000
  O1     O1        0.148362130511927    0.469900764840870    0.878355756361225  0.0000
  O3     O3        0.770799423852052    0.236389387224747    0.014763440931769  0.0000
  O1     O1        0.730425836454519    0.774220648748931    0.012145102042286  0.0000
  O1     O1        0.261520882317096    0.241062973814829    0.942840767387595  0.0000
  O1     O1        0.224665698872251    0.786312173660037    0.941372327935287  0.0000
