data_c00901.vasp
_audit_creation_method             Generated by GULP
_audit_author_name                 Salvador R. G. Balestra
_symmetry_space_group_name_H-M     'P 1             '
_symmetry_Int_Tables_number        1

loop_
_symmetry_equiv_pos_site_id
_symmetry_equiv_pos_as_xyz
_cell_length_a                       17.6098
_cell_length_b                        7.8266
_cell_length_c                       10.0396
_cell_angle_alpha                   90.5943
_cell_angle_beta                    89.9463
_cell_angle_gamma                   88.6379

loop_
_atom_site_label
_atom_site_type_symbol
_atom_site_fract_x
_atom_site_fract_y
_atom_site_fract_z
_atom_site_charge
  Ge     Ge        0.052090000000021    0.000000000000000    0.372269999999958  0.0000
  Ge     Ge        0.450120628869515    0.947808004793551    0.381901878790232  0.0000
  Ge     Ge        0.938754492422513    0.942194777646223    0.610686981720726  0.0000
  Ge     Ge        0.550698762621521    0.003295723521349    0.120837226132857  0.0000
  Ge     Ge        0.955758487149741    0.938860688523389    0.109213089420712  0.0000
  Ge     Ge        0.451927572843193    0.941640423079954    0.856195448856003  0.0000
  Ge     Ge        0.057467917048421    0.995549194807660    0.849018035307493  0.0000
  Ge     Ge        0.148528003495938    0.312502272056111    0.296928002887953  0.0000
  Ge     Ge        0.355383139563607    0.633506802734686    0.300719034872557  0.0000
  Ge     Ge        0.669990263236542    0.685043826214425    0.723671286766805  0.0000
  Ge     Ge        0.175376300840287    0.716755603642916    0.295087324678555  0.0000
  Ge     Ge        0.328583109325783    0.228753046348735    0.296929131014464  0.0000
  Ge     Ge        0.652590955630540    0.307385471445025    0.051397042157268  0.0000
  Ge     Ge        0.852471300582274    0.634373332397684    0.042427141142589  0.0000
  Ge     Ge        0.329712932449255    0.225185832809516    0.973936955301293  0.0000
  Ge     Ge        0.178444460881611    0.714068511823632    0.971790637094420  0.0000
  Ge     Ge        0.359402083769510    0.630112760701255    0.977656497479535  0.0000
  Ge     Ge        0.148741548378775    0.309901296616066    0.973836080895298  0.0000
  Ge     Ge        0.673615653855992    0.713596396883755    0.044913345838543  0.0000
  Ge     Ge        0.830054494594923    0.224872232127948    0.041576320403864  0.0000
  Si     Si        0.563040160167570    0.983745677662462    0.613812840310567  0.0000
  Si     Si        0.829841706025274    0.237905097676514    0.728926793433252  0.0000
  Si     Si        0.851165166128973    0.627267475781096    0.727206273651547  0.0000
  Si     Si        0.652106677214765    0.295409664861930    0.734754295903104  0.0000
  O1     O1        0.085619578724403    0.202366478454755    0.393157265997057  0.0000
  O1     O1        0.416899837006341    0.745920931535823    0.400224402344518  0.0000
  O3     O3        0.867480545237393    0.095849006376695    0.633839514397212  0.0000
  O3     O3        0.625517933227487    0.832756641500542    0.622581545936749  0.0000
  O3     O3        0.906131716461161    0.738735344117729    0.637188036619759  0.0000
  O2     O2        0.598497299134018    0.163817759111689    0.657775523596123  0.0000
  O1     O1        0.124930557693577    0.853513569557194    0.397593098896605  0.0000
  O1     O1        0.377207729466612    0.094789376243615    0.402519420408213  0.0000
  O1     O1        0.968024650444919    0.955873493678162    0.447382981907840  0.0000
  O3     O3        0.533777601928709    0.994628110677792    0.462512006039129  0.0000
  O1     O1        0.032526628349729    0.980035717180962    0.202776280582290  0.0000
  O1     O1        0.473950182609381    0.964339213060212    0.214637743550302  0.0000
  O1     O1        0.023130520630708    0.983650719233424    0.688432055769862  0.0000
  O3     O3        0.486127709593514    0.944826640342973    0.693631493238540  0.0000
  O1     O1        0.587131543052238    0.204211639774140    0.143458674838530  0.0000
  O1     O1        0.918074190415346    0.740077819496520    0.134112686839023  0.0000
  O1     O1        0.374233917859438    0.076720429221187    0.873059794487471  0.0000
  O1     O1        0.134677552880977    0.860464198852054    0.870822050007150  0.0000
  O1     O1        0.425856559120085    0.735704270604743    0.888131940833121  0.0000
  O1     O1        0.083548994681078    0.202052070378083    0.881590016446311  0.0000
  O1     O1        0.622388943927280    0.852087407341078    0.142350448739561  0.0000
  O1     O1        0.884239724626104    0.091124593143767    0.134592554109465  0.0000
  O1     O1        0.524729679628515    0.001605446566388    0.955307280696077  0.0000
  O1     O1        0.982068737506967    0.938982962965407    0.944170118755926  0.0000
  O1     O1        0.162593686829778    0.513364485661467    0.356294856217876  0.0000
  O1     O1        0.340864833392263    0.433694168883086    0.358438452591998  0.0000
  O2     O2        0.849107532010081    0.428472069127053    0.677369169780873  0.0000
  O3     O3        0.649497271810535    0.480238298526489    0.666860977332767  0.0000
  O1     O1        0.232939378833928    0.194165378174197    0.294428749607076  0.0000
  O1     O1        0.271102108911080    0.751631552928544    0.296013961485840  0.0000
  O2     O2        0.738650463506210    0.219612721647633    0.734502569199678  0.0000
  O3     O3        0.766934385773345    0.710052711529073    0.719243194225824  0.0000
  O1     O1        0.116919042684488    0.329159444452998    0.135380361845852  0.0000
  O1     O1        0.389237045707976    0.615131177572947    0.140364113651859  0.0000
  O3     O3        0.861486978586370    0.209541573488111    0.876708606333729  0.0000
  O1     O1        0.639609247868582    0.720647189690418    0.883057906672258  0.0000
  O3     O3        0.881663529765899    0.627801885512708    0.876521482773940  0.0000
  O3     O3        0.624762213018984    0.322479788512655    0.884857035582031  0.0000
  O1     O1        0.144297716719579    0.729466475609047    0.132383151000817  0.0000
  O1     O1        0.362065141369622    0.210840236135315    0.135628521211418  0.0000
  O1     O1        0.664240326151024    0.509926544437761    0.107486087816967  0.0000
  O1     O1        0.840944275208882    0.432699082671786    0.097256950093324  0.0000
  O1     O1        0.346869484023737    0.427802732348161    0.916492689248509  0.0000
  O1     O1        0.162239460104181    0.510206166914945    0.912549671861501  0.0000
  O1     O1        0.735473892494364    0.185512308634108    0.053812647052238  0.0000
  O1     O1        0.768672866434349    0.752851599672464    0.045350218206105  0.0000
  O1     O1        0.233655137483634    0.195613699863891    0.973735259815239  0.0000
  O1     O1        0.274536001269657    0.744265799838817    0.974336235531418  0.0000
