data_c00940.vasp
_audit_creation_method             Generated by GULP
_audit_author_name                 Salvador R. G. Balestra
_symmetry_space_group_name_H-M     'P 1             '
_symmetry_Int_Tables_number        1

loop_
_symmetry_equiv_pos_site_id
_symmetry_equiv_pos_as_xyz
_cell_length_a                       17.5873
_cell_length_b                        7.7990
_cell_length_c                       10.3011
_cell_angle_alpha                   89.9603
_cell_angle_beta                    90.6580
_cell_angle_gamma                   91.0300

loop_
_atom_site_label
_atom_site_type_symbol
_atom_site_fract_x
_atom_site_fract_y
_atom_site_fract_z
_atom_site_charge
  Ge     Ge        0.052090000000021    0.000000000000000    0.372269999999958  0.0000
  Ge     Ge        0.448859040752674    0.050125014330849    0.344328571349588  0.0000
  Ge     Ge        0.949582754228076    0.046311502643265    0.629134561721815  0.0000
  Ge     Ge        0.550933725435936    0.980517752607869    0.087940345716265  0.0000
  Ge     Ge        0.946116738072434    0.043550270507880    0.120395637530937  0.0000
  Ge     Ge        0.443041195749165    0.038227478740097    0.834092177743197  0.0000
  Ge     Ge        0.173759483199476    0.282338381059490    0.266950238851648  0.0000
  Ge     Ge        0.325461147113790    0.771629235687773    0.254438471787680  0.0000
  Ge     Ge        0.847771856651143    0.361145477512040    0.690911909068749  0.0000
  Ge     Ge        0.641936925921268    0.687387726382124    0.709353080065232  0.0000
  Ge     Ge        0.823724064703020    0.764905292937865    0.701873760515958  0.0000
  Ge     Ge        0.667928626108760    0.282841652161936    0.697409934633352  0.0000
  Ge     Ge        0.145579676480502    0.684524268129527    0.253316295716494  0.0000
  Ge     Ge        0.352941558753481    0.363265954484290    0.263255007478510  0.0000
  Ge     Ge        0.675552130184375    0.265549603595056    0.014287305578661  0.0000
  Ge     Ge        0.828636193692751    0.747030548834118    0.015357202113925  0.0000
  Ge     Ge        0.145405282845935    0.667777719845588    0.937247363093676  0.0000
  Ge     Ge        0.326489452130602    0.744840279020913    0.941283784809241  0.0000
  Ge     Ge        0.168893567483988    0.268446838406613    0.952726660093277  0.0000
  Ge     Ge        0.648473110162619    0.665466380094101    0.025356305923222  0.0000
  Si     Si        0.548796177079684    0.998579587538858    0.594849637143626  0.0000
  Si     Si        0.050524335318659    0.981048057654127    0.880239797248418  0.0000
  Si     Si        0.347506832804961    0.343158907299322    0.955508367973712  0.0000
  Si     Si        0.850997440101126    0.349837039775268    0.002299957521250  0.0000
  O1     O1        0.128504143817295    0.137612647572561    0.364781327134081  0.0000
  O1     O1        0.372342556963765    0.911240804131266    0.355929460150896  0.0000
  O1     O1        0.916618014543905    0.251468201879508    0.611907392020211  0.0000
  O3     O3        0.572603624683379    0.807463739365470    0.633791089839169  0.0000
  O1     O1        0.872772979335556    0.909534343490451    0.609058435414354  0.0000
  O3     O3        0.619090695771147    0.130316211073763    0.607391628584529  0.0000
  O1     O1        0.076822441913516    0.795314472429947    0.331297792473268  0.0000
  O1     O1        0.419021651607475    0.257478297737757    0.355577338431181  0.0000
  O1     O1        0.022662115258913    0.999656028059619    0.531168043067885  0.0000
  O3     O3        0.523244239779029    0.998800690102140    0.444166425103186  0.0000
  O1     O1        0.977182611082091    0.066070864947888    0.277768834452752  0.0000
  O1     O1        0.478454689041300    0.028039318797569    0.185795135008181  0.0000
  O3     O3        0.980386980789818    0.027884588936185    0.789955890364312  0.0000
  O3     O3        0.476231962466985    0.057548609846304    0.676358961864520  0.0000
  O1     O1        0.629128644436412    0.116759219696200    0.105033294845334  0.0000
  O1     O1        0.877325976315453    0.885671056837856    0.115744140156719  0.0000
  O3     O3        0.406323140276635    0.235944699583722    0.872830764970630  0.0000
  O3     O3        0.080105233891094    0.790087050416108    0.852596182512267  0.0000
  O1     O1        0.374994080629153    0.878020346771223    0.838627113007649  0.0000
  O3     O3        0.121599340619297    0.113123812459211    0.863016873546638  0.0000
  O1     O1        0.583821541107081    0.776555216573336    0.113092395401756  0.0000
  O3     O3        0.916235837020550    0.244390174084866    0.073128984493749  0.0000
  O1     O1        0.519918964845124    0.992849635013603    0.928675829367284  0.0000
  O3     O3        0.023944904086730    0.986884699575028    0.029853084530555  0.0000
  O1     O1        0.160203923276951    0.487881190638950    0.322897071867744  0.0000
  O1     O1        0.341164951697758    0.567431916753685    0.314052779199397  0.0000
  O1     O1        0.837534400693127    0.564720058900375    0.634929488521085  0.0000
  O1     O1        0.650603940267687    0.487113497042539    0.641479379883527  0.0000
  O1     O1        0.269427412726503    0.245930054531973    0.269604269690838  0.0000
  O1     O1        0.229330003628503    0.804100703084135    0.253331603012450  0.0000
  O1     O1        0.763359500208316    0.247199072597465    0.681743777070556  0.0000
  O1     O1        0.727500405297731    0.797774881655709    0.703005579220755  0.0000
  O1     O1        0.139028047266656    0.259743294568592    0.110552522703904  0.0000
  O1     O1        0.358489089460825    0.783686167921966    0.097135215897617  0.0000
  O3     O3        0.871968256040183    0.384940906672625    0.853705726934860  0.0000
  O1     O1        0.617057191804575    0.650304235928101    0.866393749433066  0.0000
  O1     O1        0.858028550759998    0.779361210763709    0.859069266327075  0.0000
  O1     O1        0.642035177879674    0.261488644130971    0.856673620344472  0.0000
  O1     O1        0.119151829664220    0.642461622362034    0.096068450168974  0.0000
  O3     O3        0.379632404665909    0.367566704219806    0.101115675861541  0.0000
  O1     O1        0.659482498733985    0.463105408464174    0.083128455019391  0.0000
  O3     O3        0.840952926128453    0.535558561815725    0.066508872733459  0.0000
  O3     O3        0.336994551769067    0.531622019162838    0.895926466457813  0.0000
  O1     O1        0.151091105184805    0.463124972552326    0.879446441410628  0.0000
  O3     O3        0.773091896203880    0.236949774986943    0.010032348000952  0.0000
  O1     O1        0.732965891728654    0.780939069480075    0.022802101196508  0.0000
  O3     O3        0.266667274922416    0.241206746464382    0.956754204162177  0.0000
  O1     O1        0.230767828932701    0.778468693533422    0.933724013469692  0.0000
