data_c00943.vasp
_audit_creation_method             Generated by GULP
_audit_author_name                 Salvador R. G. Balestra
_symmetry_space_group_name_H-M     'P 1             '
_symmetry_Int_Tables_number        1

loop_
_symmetry_equiv_pos_site_id
_symmetry_equiv_pos_as_xyz
_cell_length_a                       17.6721
_cell_length_b                        7.8589
_cell_length_c                       10.4776
_cell_angle_alpha                   90.0612
_cell_angle_beta                    91.0284
_cell_angle_gamma                   90.1059

loop_
_atom_site_label
_atom_site_type_symbol
_atom_site_fract_x
_atom_site_fract_y
_atom_site_fract_z
_atom_site_charge
  Ge     Ge        0.052090000000021    0.000000000000000    0.372269999999958  0.0000
  Ge     Ge        0.452733755697778    0.034788232327774    0.378898480627576  0.0000
  Ge     Ge        0.951160473465920    0.008311804788149    0.628849737146419  0.0000
  Ge     Ge        0.561385057747751    0.033630652152083    0.135266975566132  0.0000
  Ge     Ge        0.944388041421339    0.014692671406252    0.119526409108194  0.0000
  Ge     Ge        0.451212425431669    0.031691358161723    0.881774267803229  0.0000
  Ge     Ge        0.174034885877102    0.284648229197014    0.264175103204715  0.0000
  Ge     Ge        0.330318911272327    0.753095874506302    0.264904318679213  0.0000
  Ge     Ge        0.830101584490916    0.289351555366389    0.708718411470608  0.0000
  Ge     Ge        0.666243601268427    0.746509467349616    0.706989785517417  0.0000
  Ge     Ge        0.848174298684810    0.699438245886227    0.704643442761947  0.0000
  Ge     Ge        0.648731025234315    0.338082107928971    0.712530165537748  0.0000
  Ge     Ge        0.149598511206167    0.688446773787075    0.266262024195235  0.0000
  Ge     Ge        0.354426564796748    0.346144396584979    0.265083655696688  0.0000
  Ge     Ge        0.654958952624401    0.349393913452573    0.023533732067625  0.0000
  Ge     Ge        0.350469148087602    0.346761352492034    0.953335757339671  0.0000
  Ge     Ge        0.146840783959393    0.695107004601240    0.956227405350481  0.0000
  Ge     Ge        0.328865816101149    0.752468147402445    0.955566334759123  0.0000
  Ge     Ge        0.168639709083741    0.291334354256388    0.952982993481419  0.0000
  Ge     Ge        0.675006922075861    0.750675252060060    0.015479757027107  0.0000
  Si     Si        0.550901376127839    0.028603457628955    0.633072925826204  0.0000
  Si     Si        0.051588252527882    0.009338303779653    0.882345258605903  0.0000
  Si     Si        0.853748103148722    0.700342810680245    0.003952754547316  0.0000
  Si     Si        0.834359050065404    0.304624198085848    0.009684493340502  0.0000
  O1     O1        0.125344117857992    0.138967915895140    0.350215351071895  0.0000
  O1     O1        0.379220101074631    0.895477899673056    0.357626298330117  0.0000
  O1     O1        0.880794379754038    0.158580834706405    0.613405273061562  0.0000
  O3     O3        0.614430216806402    0.885116287588525    0.612030106671958  0.0000
  O1     O1        0.909794229980219    0.811565330806527    0.613033901648982  0.0000
  O3     O3        0.586862947132262    0.215750335642411    0.620986008854032  0.0000
  O1     O1        0.084953490676505    0.796718052700371    0.354555181611113  0.0000
  O1     O1        0.421485194688353    0.237989518350462    0.352005625743368  0.0000
  O1     O1        0.023085725225485    0.032111920137865    0.526432935578709  0.0000
  O3     O3        0.480754999637053    0.010481032357719    0.537157034270894  0.0000
  O1     O1        0.974500444646021    0.032743189623866    0.274616548758980  0.0000
  O1     O1        0.529475362243772    0.995712616298219    0.285866856443063  0.0000
  O3     O3        0.983510841719593    0.038489524014357    0.784741188120589  0.0000
  O3     O3        0.522997520187091    0.000328966369225    0.777410718075656  0.0000
  O1     O1        0.595382353913923    0.237311347216832    0.117851302755073  0.0000
  O3     O3        0.907048115658297    0.812276863010180    0.095638299931878  0.0000
  O1     O1        0.414189149844616    0.232666377796337    0.867095960256434  0.0000
  O3     O3        0.085328401652441    0.820310131274724    0.866925038002309  0.0000
  O1     O1        0.377569881355159    0.889771143974305    0.861870691490028  0.0000
  O3     O3        0.118279931516207    0.146513489419823    0.861784720429109  0.0000
  O1     O1        0.637599908293796    0.903452522108056    0.108976249762541  0.0000
  O3     O3        0.879847025216721    0.178240630415845    0.101517383345878  0.0000
  O1     O1        0.487035573458431    0.994639859882417    0.032823571537867  0.0000
  O3     O3        0.022886693328204    0.037971703970874    0.026438148858379  0.0000
  O1     O1        0.161702545946612    0.487165385725326    0.324507068389032  0.0000
  O1     O1        0.344019138253766    0.548742242779859    0.321096861934360  0.0000
  O1     O1        0.840466092883170    0.494608417276075    0.654177990578251  0.0000
  O1     O1        0.653051250898111    0.540402518302044    0.653778932957610  0.0000
  O1     O1        0.269013901888378    0.240056972401692    0.268878573248919  0.0000
  O1     O1        0.235161033640364    0.794396866932437    0.267467659476152  0.0000
  O1     O1        0.735783247142251    0.241384615542954    0.705822715925824  0.0000
  O1     O1        0.760634052255531    0.794797673574467    0.698553694709191  0.0000
  O1     O1        0.141362239431904    0.287349399468852    0.109175531090554  0.0000
  O1     O1        0.361881594191495    0.762816169848803    0.111161447499340  0.0000
  O3     O3        0.862061796385302    0.277738464782582    0.866359275033400  0.0000
  O1     O1        0.638074003613899    0.755646334058144    0.862936646058800  0.0000
  O3     O3        0.883991777572959    0.706093384510039    0.860752757843342  0.0000
  O1     O1        0.620402422417025    0.341833535905557    0.868738484511607  0.0000
  O1     O1        0.116760090466489    0.682045290562778    0.110621210848564  0.0000
  O1     O1        0.382965077064874    0.350834168331053    0.109180247725738  0.0000
  O1     O1        0.656852673872436    0.553696988419523    0.078708507205911  0.0000
  O2     O2        0.848235672802481    0.503253929359031    0.049907554968729  0.0000
  O1     O1        0.341137626884882    0.549010126470139    0.897224814304563  0.0000
  O1     O1        0.153638925906637    0.494339662969821    0.894289378581586  0.0000
  O3     O3        0.745659002145356    0.265750995834767    0.019297566971028  0.0000
  O3     O3        0.771036720440464    0.783243887694022    0.003224219601926  0.0000
  O1     O1        0.263480452426276    0.246964259914737    0.948859564125485  0.0000
  O1     O1        0.233870836399787    0.793850446505379    0.957039652720552  0.0000
