data_c00910.vasp
_audit_creation_method             Generated by GULP
_audit_author_name                 Salvador R. G. Balestra
_symmetry_space_group_name_H-M     'P 1             '
_symmetry_Int_Tables_number        1

loop_
_symmetry_equiv_pos_site_id
_symmetry_equiv_pos_as_xyz
_cell_length_a                       17.5774
_cell_length_b                        7.8370
_cell_length_c                       10.1815
_cell_angle_alpha                   91.5446
_cell_angle_beta                    90.0856
_cell_angle_gamma                   88.5285

loop_
_atom_site_label
_atom_site_type_symbol
_atom_site_fract_x
_atom_site_fract_y
_atom_site_fract_z
_atom_site_charge
  Ge     Ge        0.052090000000021    0.000000000000000    0.372269999999958  0.0000
  Ge     Ge        0.438129216290410    0.957508894010887    0.378154585372890  0.0000
  Ge     Ge        0.946280651580653    0.936741261424449    0.619376492358593  0.0000
  Ge     Ge        0.549473136630999    0.000313429174129    0.130902757898715  0.0000
  Ge     Ge        0.940595760667013    0.939865258316215    0.129629699091369  0.0000
  Ge     Ge        0.446597663421349    0.926840547834265    0.872876659018904  0.0000
  Ge     Ge        0.047821262434035    0.991970212148819    0.880468267924322  0.0000
  Ge     Ge        0.140439640214957    0.319441358760710    0.260247289793888  0.0000
  Ge     Ge        0.821318402607500    0.222365408509367    0.688684061059660  0.0000
  Ge     Ge        0.663440833181841    0.701005115032161    0.694258456592080  0.0000
  Ge     Ge        0.845688224848825    0.624894300115711    0.686868450558302  0.0000
  Ge     Ge        0.639313354791758    0.297907612218582    0.690865661060474  0.0000
  Ge     Ge        0.323905263697844    0.251570765570373    0.270806300481327  0.0000
  Ge     Ge        0.639434678259995    0.310149809819184    0.009711535882647  0.0000
  Ge     Ge        0.850289138958286    0.623883406513523    0.005944136353183  0.0000
  Ge     Ge        0.325025144156519    0.217950188407352    0.954483522950149  0.0000
  Ge     Ge        0.167299398069214    0.694005199116798    0.942731119061321  0.0000
  Ge     Ge        0.346918754032612    0.621136817281097    0.939576200703998  0.0000
  Ge     Ge        0.669611063784563    0.711800452731135    0.013212175642080  0.0000
  Ge     Ge        0.820121554996281    0.221979890613596    0.008003431722115  0.0000
  Si     Si        0.545501627145883    0.983907064346683    0.622240954039684  0.0000
  Si     Si        0.343705035574771    0.644706950336150    0.252603103248682  0.0000
  Si     Si        0.165946561718339    0.711639747009803    0.252267320497916  0.0000
  Si     Si        0.147447116876273    0.297085232969922    0.949992557930461  0.0000
  O1     O1        0.075832734114991    0.207931933594162    0.346744074602798  0.0000
  O3     O3        0.398285906178906    0.764702440940314    0.336091662822639  0.0000
  O1     O1        0.873046316920002    0.081579494062888    0.591487566562498  0.0000
  O3     O3        0.612994273401346    0.843778653270955    0.598403063810793  0.0000
  O1     O1        0.910057738960318    0.736379948354237    0.598520658389254  0.0000
  O3     O3        0.576474645728885    0.172333621543721    0.600985546049796  0.0000
  O3     O3        0.130116894092304    0.867499305505810    0.336740959450728  0.0000
  O1     O1        0.370795166540848    0.117790838005969    0.374958843036409  0.0000
  O1     O1        0.027336644897221    0.973320401834418    0.533733119960733  0.0000
  O3     O3        0.470924505040816    0.943915990712180    0.539123563550641  0.0000
  O1     O1        0.970127514511536    0.948765576286345    0.290670731653186  0.0000
  O1     O1        0.517754234763860    0.997344813488705    0.290004049919298  0.0000
  O1     O1        0.970695522419923    0.966055761361512    0.783391507028129  0.0000
  O3     O3        0.522240703229715    0.972443711113265    0.776206086504812  0.0000
  O1     O1        0.573045734132051    0.206276325656519    0.097180874736094  0.0000
  O1     O1        0.917401350172504    0.732528788208781    0.093095113204627  0.0000
  O1     O1        0.370673523092196    0.068965759389944    0.857543070995774  0.0000
  O1     O1        0.112122617996185    0.825010572473612    0.850451645494208  0.0000
  O1     O1        0.412652379040563    0.724419037913178    0.849926107733668  0.0000
  O3     O3        0.092332610310756    0.185631597695629    0.859160626518992  0.0000
  O1     O1        0.627547280933638    0.865915232574800    0.111669032279746  0.0000
  O1     O1        0.863536674600986    0.074083414675169    0.104840203992705  0.0000
  O1     O1        0.475885067032795    0.936174434167138    0.033731087205404  0.0000
  O1     O1        0.017682620319847    0.998865074473231    0.040768920153318  0.0000
  O3     O3        0.143272778252993    0.532221809886982    0.312878985488546  0.0000
  O3     O3        0.341267894415081    0.461526213739394    0.317810372243267  0.0000
  O1     O1        0.833231260379961    0.422800794157312    0.626181093234977  0.0000
  O1     O1        0.648418249405939    0.497644933090635    0.630304718528494  0.0000
  O1     O1        0.228002303307444    0.223197174643663    0.279802894056686  0.0000
  O2     O2        0.257674446176776    0.725642826958650    0.246869005855210  0.0000
  O1     O1        0.725404357887773    0.187722197689553    0.689147422530342  0.0000
  O1     O1        0.759354346789258    0.736073047049114    0.689281257645969  0.0000
  O3     O3        0.113939541394689    0.320809418753280    0.096864615306483  0.0000
  O3     O3        0.373190191211141    0.620499181620946    0.104655499640818  0.0000
  O1     O1        0.852676170804661    0.209266860618246    0.848875659709603  0.0000
  O1     O1        0.634180727318455    0.718501650891882    0.855320294187745  0.0000
  O1     O1        0.878667908396846    0.605253286178459    0.844918409234733  0.0000
  O1     O1        0.608926507404008    0.326888380957722    0.849899276061446  0.0000
  O3     O3        0.135710920115162    0.722307368719417    0.103705100317287  0.0000
  O1     O1        0.357036497990446    0.207194190573166    0.114462807994528  0.0000
  O1     O1        0.653119468543863    0.511749117347976    0.072725357794829  0.0000
  O1     O1        0.837659385083993    0.425924345521919    0.067758342204997  0.0000
  O1     O1        0.341720334199697    0.413924317662188    0.888848925979226  0.0000
  O3     O3        0.158677891549068    0.481571708791291    0.890891526162986  0.0000
  O1     O1        0.723824511993525    0.193402899967266    0.008807204077950  0.0000
  O1     O1        0.765704727545489    0.740187828703479    0.008975168804402  0.0000
  O3     O3        0.227708502011825    0.193388993873905    0.961988546143628  0.0000
  O1     O1        0.261705281105276    0.733515183935831    0.927704143653752  0.0000
