data_c00907.vasp
_audit_creation_method             Generated by GULP
_audit_author_name                 Salvador R. G. Balestra
_symmetry_space_group_name_H-M     'P 1             '
_symmetry_Int_Tables_number        1

loop_
_symmetry_equiv_pos_site_id
_symmetry_equiv_pos_as_xyz
_cell_length_a                       17.6111
_cell_length_b                        7.8004
_cell_length_c                       10.1744
_cell_angle_alpha                   90.4601
_cell_angle_beta                    91.1103
_cell_angle_gamma                   88.4853

loop_
_atom_site_label
_atom_site_type_symbol
_atom_site_fract_x
_atom_site_fract_y
_atom_site_fract_z
_atom_site_charge
  Ge     Ge        0.052090000000021    0.000000000000000    0.372269999999958  0.0000
  Ge     Ge        0.438554361052592    0.949141788499083    0.364317714313019  0.0000
  Ge     Ge        0.939122201997741    0.938337619976618    0.610352748471268  0.0000
  Ge     Ge        0.551768028650969    0.002301839251804    0.128125962322346  0.0000
  Ge     Ge        0.943041127510760    0.939901618242458    0.120033758536410  0.0000
  Ge     Ge        0.442860972089080    0.935899296305798    0.873108541836106  0.0000
  Ge     Ge        0.042834698892908    0.004054722581590    0.866646830716586  0.0000
  Ge     Ge        0.145392100635318    0.313841028966112    0.255180837787538  0.0000
  Ge     Ge        0.814971010758044    0.223015447779746    0.682646317211519  0.0000
  Ge     Ge        0.658680296717840    0.706133366834258    0.687424865357932  0.0000
  Ge     Ge        0.839531412632405    0.626234631330199    0.675807298709832  0.0000
  Ge     Ge        0.633476366642090    0.300773037262522    0.688568819735556  0.0000
  Ge     Ge        0.172399661761618    0.713466709432741    0.258351861115624  0.0000
  Ge     Ge        0.640111648003335    0.314078898426537    0.006657366442444  0.0000
  Ge     Ge        0.850690527363369    0.626846244847227    0.996234613179085  0.0000
  Ge     Ge        0.322531593231456    0.232957620339490    0.942813909655106  0.0000
  Ge     Ge        0.168302609218782    0.717148403605457    0.937756381720625  0.0000
  Ge     Ge        0.142887771041563    0.314526053371324    0.932652818464115  0.0000
  Ge     Ge        0.671299873380670    0.717243852112460    0.007403738410986  0.0000
  Ge     Ge        0.820174957532880    0.223489180584799    0.001365217578434  0.0000
  Si     Si        0.538346306385062    0.987372965297079    0.617534813247852  0.0000
  Si     Si        0.349170591040340    0.635146658520962    0.246356532307957  0.0000
  Si     Si        0.324552573393156    0.240905652988112    0.252241207572859  0.0000
  Si     Si        0.343669213564587    0.634325866822509    0.939634165064458  0.0000
  O1     O1        0.080313227940994    0.204284459208172    0.341646783790354  0.0000
  O3     O3        0.410906839849402    0.741930429020996    0.326589232364762  0.0000
  O1     O1        0.865427004522743    0.083930609346729    0.584736056014620  0.0000
  O3     O3        0.606536288323597    0.850014380934336    0.591346188315445  0.0000
  O1     O1        0.903195070615754    0.738061398463917    0.585810179698751  0.0000
  O3     O3        0.568572742811863    0.178498062758668    0.600885238152832  0.0000
  O1     O1        0.130574093212034    0.869211908335435    0.352383398617281  0.0000
  O3     O3        0.368272341775046    0.106336451004061    0.345857083505140  0.0000
  O1     O1        0.020384534918489    0.983537293106259    0.530905130378840  0.0000
  O3     O3        0.464145621241341    0.952505685744425    0.530221171826691  0.0000
  O1     O1        0.973595486418443    0.941928832113844    0.281558872574424  0.0000
  O1     O1        0.520313067748615    0.992947734182167    0.286349032985867  0.0000
  O1     O1        0.965343067356153    0.953134034055060    0.775772523733048  0.0000
  O3     O3        0.517081774009844    0.961019356576378    0.770278252642206  0.0000
  O1     O1        0.575868489843792    0.209877389380868    0.098101630330375  0.0000
  O1     O1        0.920623449123688    0.732503945053435    0.079449387917006  0.0000
  O1     O1        0.375311798416353    0.096850268500841    0.848474175702396  0.0000
  O1     O1        0.118148931607416    0.860928994274751    0.844722259055275  0.0000
  O3     O3        0.403374149120753    0.734142681148194    0.855108857358986  0.0000
  O1     O1        0.077143869683644    0.205531484997805    0.841451881620308  0.0000
  O1     O1        0.629608916295572    0.868954579335504    0.105671210536634  0.0000
  O1     O1        0.865169312780565    0.074412092508592    0.099228631339885  0.0000
  O1     O1        0.476478070828385    0.942300617914543    0.031399164707389  0.0000
  O1     O1        0.017843454428984    0.004169296217493    0.030065014796027  0.0000
  O1     O1        0.150809992023503    0.516645732854075    0.319236032129950  0.0000
  O2     O2        0.341090254443394    0.439082314986531    0.295817620770720  0.0000
  O1     O1        0.825775737208990    0.424470309896314    0.616842005080771  0.0000
  O1     O1        0.642948420941547    0.501927351508709    0.626745776743664  0.0000
  O3     O3        0.234931532251634    0.213182101351023    0.258833349202263  0.0000
  O3     O3        0.269660569868416    0.736641234609039    0.262743030461449  0.0000
  O1     O1        0.719370664083197    0.188731208970725    0.686437561483824  0.0000
  O1     O1        0.754359013719121    0.741119284551704    0.678470982026533  0.0000
  O1     O1        0.116440047500804    0.330864664742605    0.094583559687328  0.0000
  O2     O2        0.371183430603095    0.625961789311968    0.093107306399753  0.0000
  O1     O1        0.850519385051993    0.208278228264446    0.841581488117618  0.0000
  O1     O1        0.634085936463170    0.722620317670912    0.849887382573289  0.0000
  O1     O1        0.874016301253679    0.603547504664377    0.834145813378812  0.0000
  O1     O1        0.605293372799494    0.327386166770361    0.847851089645473  0.0000
  O1     O1        0.139882897903021    0.732968574989670    0.098744161016801  0.0000
  O3     O3        0.353495395585546    0.208529299898464    0.105081629182072  0.0000
  O1     O1        0.656454350385403    0.514533354748931    0.067787291312584  0.0000
  O1     O1        0.839019854677471    0.426915161774268    0.059765086261063  0.0000
  O3     O3        0.333194363034290    0.442724366306856    0.888974615730177  0.0000
  O1     O1        0.151322385720631    0.516117021909322    0.874050342287176  0.0000
  O1     O1        0.724160620814852    0.195790499402057    0.002280739894035  0.0000
  O1     O1        0.767222970534183    0.746951804159893    0.003668558667929  0.0000
  O1     O1        0.227722767216060    0.197260317937386    0.930738637532721  0.0000
  O3     O3        0.265217198707291    0.745544859285207    0.934162433485722  0.0000
