data_c00939.vasp
_audit_creation_method             Generated by GULP
_audit_author_name                 Salvador R. G. Balestra
_symmetry_space_group_name_H-M     'P 1             '
_symmetry_Int_Tables_number        1

loop_
_symmetry_equiv_pos_site_id
_symmetry_equiv_pos_as_xyz
_cell_length_a                       17.6632
_cell_length_b                        7.8821
_cell_length_c                       10.4572
_cell_angle_alpha                   89.6530
_cell_angle_beta                    90.7374
_cell_angle_gamma                   89.7048

loop_
_atom_site_label
_atom_site_type_symbol
_atom_site_fract_x
_atom_site_fract_y
_atom_site_fract_z
_atom_site_charge
  Ge     Ge        0.052090000000021    0.000000000000000    0.372269999999958  0.0000
  Ge     Ge        0.451281762096648    0.025854978783103    0.370424004301471  0.0000
  Ge     Ge        0.950078792283508    0.991395065165170    0.627534105263715  0.0000
  Ge     Ge        0.555636832920745    0.030157012833727    0.122814504868608  0.0000
  Ge     Ge        0.945534882604677    0.992731810669217    0.120554246169073  0.0000
  Ge     Ge        0.441948802671352    0.018417547352327    0.875661476959759  0.0000
  Ge     Ge        0.169941450623073    0.285839704815897    0.256201948732176  0.0000
  Ge     Ge        0.330443324625255    0.743500313462564    0.252970396617417  0.0000
  Ge     Ge        0.826642456414908    0.276684728236011    0.696828113532173  0.0000
  Ge     Ge        0.664183717300686    0.736024088888572    0.696231843786900  0.0000
  Ge     Ge        0.846343083436218    0.679429714058258    0.692546745897768  0.0000
  Ge     Ge        0.643918069775854    0.331920992269147    0.701047837934154  0.0000
  Ge     Ge        0.151633685085826    0.693060361563259    0.259923279987052  0.0000
  Ge     Ge        0.350576326143065    0.333343500292009    0.253276486649423  0.0000
  Ge     Ge        0.645526732842805    0.346894750718931    0.010467991811491  0.0000
  Ge     Ge        0.854314586536965    0.677035603709457    0.005038691210282  0.0000
  Ge     Ge        0.345305114029490    0.341419349308002    0.942359110866522  0.0000
  Ge     Ge        0.159275295798192    0.310544792213552    0.945489898552220  0.0000
  Ge     Ge        0.673611667681307    0.747813335742227    0.007112041647298  0.0000
  Ge     Ge        0.826890635463450    0.275727648148759    0.005979388176797  0.0000
  Si     Si        0.545829129481967    0.019075341167367    0.628365541838783  0.0000
  Si     Si        0.052106407124842    0.015840587569772    0.881908914020273  0.0000
  Si     Si        0.149404342973988    0.702210047827406    0.957073117476218  0.0000
  Si     Si        0.328983517651301    0.734734667227044    0.950829862298302  0.0000
  O1     O1        0.121506412407565    0.146949056276072    0.349278588485025  0.0000
  O1     O1        0.381900741892901    0.879099341656491    0.343821816773582  0.0000
  O1     O1        0.879065745062842    0.139854586121944    0.607697949775320  0.0000
  O3     O3        0.611372298672176    0.879717264887606    0.606542344374962  0.0000
  O1     O1        0.909000749627920    0.796789156194228    0.605579976279484  0.0000
  O3     O3        0.581232687895351    0.205935969450586    0.616039504900729  0.0000
  O1     O1        0.086302043133344    0.798798182698589    0.347496988818109  0.0000
  O1     O1        0.415941213824552    0.226184476630652    0.344691377070746  0.0000
  O1     O1        0.023731536482253    0.021615458775588    0.527925295559438  0.0000
  O3     O3        0.477341800828279    0.000919214548171    0.529317921801740  0.0000
  O1     O1        0.974303648976176    0.027363872393320    0.274924408670878  0.0000
  O1     O1        0.528614893580860    0.994156974020569    0.277245318715626  0.0000
  O3     O3        0.982607370068156    0.004246186055104    0.785109587689687  0.0000
  O3     O3        0.513656843934932    0.984890233693543    0.770075138853765  0.0000
  O1     O1        0.582670889310456    0.237447529544876    0.101663284116755  0.0000
  O1     O1        0.919800014027445    0.786352951425917    0.093349217741993  0.0000
  O1     O1        0.402867640940242    0.216071825728994    0.852046605082376  0.0000
  O2     O2        0.102283021496530    0.842155858130033    0.876079876010900  0.0000
  O3     O3        0.366677634058157    0.875431473371680    0.863147048650158  0.0000
  O3     O3        0.106558942120030    0.173996005819437    0.851466358719334  0.0000
  O1     O1        0.631760668009342    0.900420360817047    0.096028761073193  0.0000
  O1     O1        0.868943608634656    0.123309509671133    0.098205678180564  0.0000
  O1     O1        0.479668157516218    0.986551091716451    0.025286050527216  0.0000
  O3     O3        0.020566801963880    0.045068159927490    0.023448255213913  0.0000
  O1     O1        0.160872315877663    0.489677068299437    0.313812077073339  0.0000
  O1     O1        0.341906891036761    0.537274595881747    0.305244593190586  0.0000
  O1     O1        0.836642145101059    0.478557842188222    0.634839965256689  0.0000
  O1     O1        0.649983335145894    0.533212520868208    0.639206133777684  0.0000
  O1     O1        0.264081998871909    0.233746150901480    0.257914254124388  0.0000
  O1     O1        0.236816509537818    0.796328460647433    0.266616025190621  0.0000
  O1     O1        0.731293402767532    0.234113778758214    0.697966394381211  0.0000
  O1     O1        0.759116066688956    0.779655103625025    0.689197869711676  0.0000
  O1     O1        0.135032428461576    0.286559492632457    0.102419243458513  0.0000
  O3     O3        0.360290802594485    0.748784449270810    0.095672701535994  0.0000
  O1     O1        0.859531396865000    0.267062326930835    0.852180727218444  0.0000
  O1     O1        0.638213480079792    0.745617543189029    0.853524909803657  0.0000
  O1     O1        0.879719242052423    0.666018655102081    0.847575448513181  0.0000
  O1     O1        0.612040674719383    0.348259318630384    0.854819217617075  0.0000
  O3     O3        0.120038318463679    0.695060265111298    0.101237513001705  0.0000
  O1     O1        0.378899675335305    0.325014799415443    0.096663554391481  0.0000
  O1     O1        0.656845522694836    0.547292646519841    0.068462854609304  0.0000
  O1     O1        0.844882738780285    0.475836942562902    0.065037492014477  0.0000
  O3     O3        0.348381455586999    0.551059995549519    0.893380622595243  0.0000
  O3     O3        0.140899006450807    0.518166130221299    0.894801541985928  0.0000
  O1     O1        0.731236070444214    0.243348909777861    0.005158170352684  0.0000
  O1     O1        0.768906992143446    0.783354191044892    0.007228155793846  0.0000
  O1     O1        0.253865041835546    0.269504220243729    0.932076179025614  0.0000
  O2     O2        0.237978364459882    0.753685774831499    0.961335632416922  0.0000
