data_c00977.vasp
_audit_creation_method             Generated by GULP
_audit_author_name                 Salvador R. G. Balestra
_symmetry_space_group_name_H-M     'P 1             '
_symmetry_Int_Tables_number        1

loop_
_symmetry_equiv_pos_site_id
_symmetry_equiv_pos_as_xyz
_cell_length_a                       17.6119
_cell_length_b                        7.8242
_cell_length_c                       10.1208
_cell_angle_alpha                   89.1573
_cell_angle_beta                    91.0288
_cell_angle_gamma                   88.4109

loop_
_atom_site_label
_atom_site_type_symbol
_atom_site_fract_x
_atom_site_fract_y
_atom_site_fract_z
_atom_site_charge
  Ge     Ge        0.052090000000021    0.000000000000000    0.372269999999958  0.0000
  Ge     Ge        0.447663929285522    0.949880238398773    0.368258442637978  0.0000
  Ge     Ge        0.943015074702193    0.957407818577279    0.619818505308603  0.0000
  Ge     Ge        0.546742455858980    0.013346475161818    0.109502585751574  0.0000
  Ge     Ge        0.954613561754923    0.946600724051777    0.105003547307621  0.0000
  Ge     Ge        0.442558365753974    0.964501536931782    0.846248398768154  0.0000
  Ge     Ge        0.144634325607991    0.315041638392907    0.289099170589939  0.0000
  Ge     Ge        0.352706972030930    0.638942326539919    0.288062472968110  0.0000
  Ge     Ge        0.825714930696737    0.256647539319565    0.721692055330298  0.0000
  Ge     Ge        0.668564863361475    0.727155086420004    0.724506840070440  0.0000
  Ge     Ge        0.643056277320395    0.326571260705714    0.721420917227418  0.0000
  Ge     Ge        0.173581290221522    0.718339885279724    0.289240374751047  0.0000
  Ge     Ge        0.325383101131706    0.233930635434720    0.282520817307332  0.0000
  Ge     Ge        0.648254001809276    0.322127381075795    0.044333768818506  0.0000
  Ge     Ge        0.850177161944031    0.637686882663339    0.047093617562997  0.0000
  Ge     Ge        0.324002570153920    0.249324512033612    0.963738879291171  0.0000
  Ge     Ge        0.346398982897016    0.652210674332040    0.965977268968327  0.0000
  Ge     Ge        0.140626609534164    0.323005841505464    0.972730100870455  0.0000
  Ge     Ge        0.672518844481973    0.725282693500654    0.047277964053275  0.0000
  Ge     Ge        0.827650926787564    0.234698580643823    0.041383066098188  0.0000
  Si     Si        0.552594797877892    0.018260195969610    0.608968097837224  0.0000
  Si     Si        0.054343763722635    0.008640641592980    0.856482179146252  0.0000
  Si     Si        0.845634748081468    0.649778659871032    0.729235146133952  0.0000
  Si     Si        0.166898636990156    0.719265188865440    0.974165842036091  0.0000
  O1     O1        0.085404904036292    0.202524452233284    0.389346304939695  0.0000
  O1     O1        0.417294411430181    0.744982603757045    0.384281041620862  0.0000
  O1     O1        0.875693560676285    0.117362077058971    0.624956501519342  0.0000
  O3     O3        0.624827439129759    0.893968257144031    0.638037726388863  0.0000
  O3     O3        0.908636938930754    0.759041136002331    0.657255802580610  0.0000
  O3     O3        0.574894570222136    0.211504298621755    0.638207185441109  0.0000
  O1     O1        0.126091724646807    0.852818552516847    0.391281058941149  0.0000
  O1     O1        0.373179048319193    0.092904789268790    0.386749591195113  0.0000
  O1     O1        0.973697726733029    0.954176712305193    0.458897057122487  0.0000
  O3     O3        0.528494610824275    0.998692322374219    0.455821482207388  0.0000
  O1     O1        0.029319711257192    0.981734598391187    0.205283066783610  0.0000
  O1     O1        0.471142917509475    0.973234756748144    0.203331693361033  0.0000
  O3     O3        0.027489714413088    0.994552749694762    0.704958038338741  0.0000
  O3     O3        0.477308000659984    0.965528036857443    0.686580973986910  0.0000
  O1     O1        0.583639444122500    0.212300114672874    0.133251418470164  0.0000
  O1     O1        0.921386862963006    0.742472729651880    0.123811316929374  0.0000
  O1     O1        0.367230166799899    0.105493279551867    0.862300375554576  0.0000
  O2     O2        0.122325788336714    0.871096554796051    0.892548451091106  0.0000
  O1     O1        0.409040606767963    0.763526097682707    0.874816662207957  0.0000
  O3     O3        0.080182791564920    0.201929447848848    0.878340939377657  0.0000
  O1     O1        0.619230457336762    0.863121690348016    0.137296613390149  0.0000
  O1     O1        0.879945497373324    0.088367906480934    0.132518040907807  0.0000
  O1     O1        0.517989949850676    0.010919717098951    0.945449038627923  0.0000
  O3     O3        0.980543520281133    0.968764189060879    0.940821053623792  0.0000
  O1     O1        0.160143855723591    0.513016557214820    0.348371389739023  0.0000
  O1     O1        0.340026576538016    0.436401424045725    0.343477671105306  0.0000
  O3     O3        0.837119930723199    0.465306874460570    0.663786830014204  0.0000
  O1     O1        0.647558922613777    0.532454050504436    0.658980689290370  0.0000
  O1     O1        0.229880516469173    0.200745869975109    0.278778649578761  0.0000
  O1     O1        0.268373675829647    0.757195465390238    0.291179848313924  0.0000
  O1     O1        0.729867853472897    0.222939699302326    0.712151908110341  0.0000
  O3     O3        0.765792598433355    0.755711321723479    0.720535028565602  0.0000
  O1     O1        0.107321921053055    0.328982175244304    0.130142716157244  0.0000
  O1     O1        0.380362061954909    0.635615395091207    0.125790248153435  0.0000
  O1     O1        0.857735770595968    0.224315253286490    0.880378942274979  0.0000
  O1     O1        0.640680287047185    0.737338963109519    0.885090967320082  0.0000
  O3     O3        0.868832284822727    0.612034372599962    0.880626351102794  0.0000
  O1     O1        0.617454576450105    0.347908768567851    0.882394893901405  0.0000
  O3     O3        0.140974159847561    0.722878343583039    0.125475307438281  0.0000
  O1     O1        0.358952823737150    0.225435455670535    0.123241401128630  0.0000
  O1     O1        0.662234697096173    0.519240605421988    0.107480278020563  0.0000
  O1     O1        0.840727677082421    0.435353734765739    0.107060507557609  0.0000
  O1     O1        0.340237465485768    0.451494012361707    0.903891813141023  0.0000
  O3     O3        0.148145697751404    0.533486695311690    0.915865233925115  0.0000
  O1     O1        0.731916331163761    0.201459712249222    0.041639661491080  0.0000
  O1     O1        0.767954043103266    0.761445678377936    0.056801017289379  0.0000
  O1     O1        0.228037524151942    0.223437615753859    0.969189984296869  0.0000
  O3     O3        0.256414414616566    0.750349409202427    0.966768751221529  0.0000
