data_c00945.vasp
_audit_creation_method             Generated by GULP
_audit_author_name                 Salvador R. G. Balestra
_symmetry_space_group_name_H-M     'P 1             '
_symmetry_Int_Tables_number        1

loop_
_symmetry_equiv_pos_site_id
_symmetry_equiv_pos_as_xyz
_cell_length_a                       17.5508
_cell_length_b                        7.8181
_cell_length_c                       10.3207
_cell_angle_alpha                   90.1111
_cell_angle_beta                    90.7986
_cell_angle_gamma                   88.4307

loop_
_atom_site_label
_atom_site_type_symbol
_atom_site_fract_x
_atom_site_fract_y
_atom_site_fract_z
_atom_site_charge
  Ge     Ge        0.052090000000021    0.000000000000000    0.372269999999958  0.0000
  Ge     Ge        0.452790473815584    0.943908586489357    0.397758755155502  0.0000
  Ge     Ge        0.945212366431214    0.943140870537690    0.622206198030806  0.0000
  Ge     Ge        0.558524811597665    0.991241188799153    0.150737959909821  0.0000
  Ge     Ge        0.949199892446452    0.934325345388227    0.113185924243900  0.0000
  Ge     Ge        0.447288953809055    0.935501615400343    0.901439256638345  0.0000
  Ge     Ge        0.147144860760033    0.314566058691014    0.297597261340275  0.0000
  Ge     Ge        0.356399786537349    0.632111416042362    0.283496699858581  0.0000
  Ge     Ge        0.823180820937850    0.231005723172570    0.727256977762383  0.0000
  Ge     Ge        0.667198048990809    0.713436507597218    0.734772558866882  0.0000
  Ge     Ge        0.848651934367751    0.633342818419943    0.734581626433038  0.0000
  Ge     Ge        0.641103899839278    0.305766592745715    0.729230357941677  0.0000
  Ge     Ge        0.175543497169385    0.716630248890456    0.292143431072759  0.0000
  Ge     Ge        0.327700256371791    0.228986866965613    0.287583412948801  0.0000
  Ge     Ge        0.847968963124322    0.621478699206361    0.052264586599017  0.0000
  Ge     Ge        0.322602322313589    0.222301767443059    0.973513101956996  0.0000
  Ge     Ge        0.166981131075091    0.708885921029192    0.977179117963074  0.0000
  Ge     Ge        0.348407071073926    0.623731162269652    0.967821495368768  0.0000
  Ge     Ge        0.140592195706265    0.304168837104368    0.983434422210992  0.0000
  Ge     Ge        0.825154500717886    0.224374153451898    0.040009421595042  0.0000
  Si     Si        0.548353044606052    0.995707632908258    0.654773272441243  0.0000
  Si     Si        0.049456929386773    0.995246263431898    0.867342351734034  0.0000
  Si     Si        0.646177061962625    0.302055430479947    0.032633851744012  0.0000
  Si     Si        0.670060090917965    0.696649994781592    0.041547337108844  0.0000
  O1     O1        0.084465918489923    0.203842906860846    0.390122202496996  0.0000
  O1     O1        0.426068497099573    0.738957670857549    0.365204759017953  0.0000
  O1     O1        0.869444919403162    0.083536735673614    0.632678204581383  0.0000
  O3     O3        0.618414495301093    0.859794704205320    0.638355878531502  0.0000
  O1     O1        0.916855461441522    0.739981429440110    0.652844470241230  0.0000
  O3     O3        0.577121337457170    0.187985267925855    0.638401851542815  0.0000
  O1     O1        0.127952873225883    0.857895110531607    0.390272141323651  0.0000
  O1     O1        0.375782088635125    0.080561815425511    0.380284840151999  0.0000
  O1     O1        0.976801835678117    0.952823920285559    0.465326383858381  0.0000
  O3     O3        0.479137222712908    0.955554801579695    0.560562320640555  0.0000
  O1     O1        0.022939624340363    0.981625279729503    0.211229763851760  0.0000
  O1     O1        0.529959924043871    0.998236504502561    0.308799520601054  0.0000
  O3     O3        0.022417764484865    0.998220960803227    0.718184136305666  0.0000
  O3     O3        0.522197331432954    0.973975666039380    0.803308097189889  0.0000
  O3     O3        0.591444705390543    0.195171186221593    0.121718105832405  0.0000
  O1     O1        0.912815788685625    0.734960747776497    0.138846744708868  0.0000
  O1     O1        0.371697531593050    0.078442645979327    0.880428113163421  0.0000
  O3     O3        0.120839369665959    0.863836021490321    0.884453405374095  0.0000
  O1     O1        0.412174598173726    0.734522348412313    0.879090180933061  0.0000
  O3     O3        0.071957990981102    0.187454653141798    0.904590981652776  0.0000
  O3     O3        0.626394692648358    0.827170415286528    0.135282853122692  0.0000
  O1     O1        0.871779094433354    0.072798036178845    0.130259984145125  0.0000
  O1     O1        0.479365071621223    0.951503616053162    0.059620222161997  0.0000
  O3     O3        0.979188950494252    0.935842901610893    0.953024385362929  0.0000
  O1     O1        0.162136032076133    0.514694438800393    0.355341517927411  0.0000
  O1     O1        0.343468476437350    0.432296610756923    0.345879029691116  0.0000
  O1     O1        0.836794279980211    0.434141361749600    0.669381533790810  0.0000
  O1     O1        0.648031318127299    0.510970746103507    0.676779811536614  0.0000
  O1     O1        0.231535183198707    0.196539653830765    0.290995517782276  0.0000
  O1     O1        0.271526233847440    0.749757520800036    0.289139591709804  0.0000
  O1     O1        0.727104111753770    0.197750570057851    0.723877938550926  0.0000
  O1     O1        0.762694959275684    0.746642897537800    0.726532253969912  0.0000
  O1     O1        0.113228136764075    0.332426907134157    0.140666185839146  0.0000
  O1     O1        0.381673144978263    0.606570491623734    0.124932421598301  0.0000
  O1     O1        0.857354617775937    0.212286444702355    0.883568723097145  0.0000
  O3     O3        0.639164690910712    0.726228593330155    0.895616235000189  0.0000
  O1     O1        0.875364894951291    0.606837927368511    0.893229847852304  0.0000
  O3     O3        0.610880181929244    0.311663298432350    0.888844032314659  0.0000
  O1     O1        0.139143475407288    0.725894370702419    0.135814519458600  0.0000
  O1     O1        0.357678150475971    0.212282010572766    0.130100017089085  0.0000
  O2     O2        0.657638676156756    0.497476952386698    0.082370044571106  0.0000
  O1     O1        0.843547347165822    0.419050218284945    0.110649169986013  0.0000
  O1     O1        0.334651091359937    0.423492954485742    0.908919017012016  0.0000
  O1     O1        0.148508879907691    0.506002093554911    0.919904595870187  0.0000
  O3     O3        0.727502787317012    0.202377065627176    0.030998736504278  0.0000
  O3     O3        0.759635170014519    0.728455123043454    0.050211015750611  0.0000
  O1     O1        0.226138196650898    0.192047484357240    0.976778814270969  0.0000
  O1     O1        0.263031019683130    0.738742414502150    0.971217248854980  0.0000
