data_c01093.vasp
_audit_creation_method             Generated by GULP
_audit_author_name                 Salvador R. G. Balestra
_symmetry_space_group_name_H-M     'P 1             '
_symmetry_Int_Tables_number        1

loop_
_symmetry_equiv_pos_site_id
_symmetry_equiv_pos_as_xyz
_cell_length_a                       17.5676
_cell_length_b                        7.8251
_cell_length_c                       10.2173
_cell_angle_alpha                   90.2672
_cell_angle_beta                    90.3228
_cell_angle_gamma                   88.4686

loop_
_atom_site_label
_atom_site_type_symbol
_atom_site_fract_x
_atom_site_fract_y
_atom_site_fract_z
_atom_site_charge
  Ge     Ge        0.052090000000021    0.000000000000000    0.372269999999958  0.0000
  Ge     Ge        0.444562554577827    0.949141868941541    0.355658819811522  0.0000
  Ge     Ge        0.945563829257193    0.939030833269228    0.623091310291772  0.0000
  Ge     Ge        0.549680042977867    0.009828959168071    0.100612460346579  0.0000
  Ge     Ge        0.443799953128217    0.953664803780267    0.845713391701619  0.0000
  Ge     Ge        0.046784616638122    0.012432657938159    0.882890676839074  0.0000
  Ge     Ge        0.141761880204624    0.319653937734703    0.258673563795448  0.0000
  Ge     Ge        0.347293475490835    0.636458818490698    0.276949062916491  0.0000
  Ge     Ge        0.822547142940032    0.225422070147766    0.702963049847229  0.0000
  Ge     Ge        0.665656728842420    0.705049512174721    0.708586129444757  0.0000
  Ge     Ge        0.847441722225404    0.627316462624193    0.695700089841665  0.0000
  Ge     Ge        0.640688769791889    0.302309929278723    0.717008595456759  0.0000
  Ge     Ge        0.323735930146927    0.233534906445706    0.267929753443511  0.0000
  Ge     Ge        0.648791972638965    0.319975413470080    0.035000147129601  0.0000
  Ge     Ge        0.854953352946586    0.640293501945167    0.013298580927790  0.0000
  Ge     Ge        0.326441205989508    0.249316136661994    0.952832014662793  0.0000
  Ge     Ge        0.173916205443025    0.726433737148684    0.955295364605397  0.0000
  Ge     Ge        0.143793658694252    0.328474758023966    0.942990315212022  0.0000
  Ge     Ge        0.673323969858929    0.720299050273567    0.025569919852741  0.0000
  Ge     Ge        0.829706659305884    0.235621179460380    0.020481918321821  0.0000
  Si     Si        0.548571193078872    0.991763525646062    0.602736196493159  0.0000
  Si     Si        0.945911765633729    0.948807178505801    0.130714547810064  0.0000
  Si     Si        0.170551591410060    0.713580681402886    0.266488515104989  0.0000
  Si     Si        0.351049666325115    0.647951425392613    0.965031690934253  0.0000
  O1     O1        0.078917591704041    0.206099650512032    0.349521589764890  0.0000
  O1     O1        0.410232135154875    0.747150759904169    0.370415666906704  0.0000
  O1     O1        0.871065388093212    0.084213681268845    0.604496976989825  0.0000
  O3     O3        0.619034806226643    0.859491611357578    0.616160366586407  0.0000
  O1     O1        0.910224221150108    0.738512862763803    0.602679515751449  0.0000
  O3     O3        0.571942845225496    0.182717207891105    0.640761819790463  0.0000
  O3     O3        0.126921325731016    0.856218277518110    0.351520734511611  0.0000
  O1     O1        0.369499064926963    0.092433512519660    0.370392455654417  0.0000
  O1     O1        0.023207316019596    0.981240795369305    0.531979025397961  0.0000
  O3     O3        0.521985857107003    0.991181459120965    0.451627878937026  0.0000
  O3     O3        0.972489223029836    0.949515527154859    0.281274449302309  0.0000
  O1     O1        0.474399824202118    0.967910746799012    0.195644834412454  0.0000
  O1     O1        0.974183118155566    0.954731039730440    0.785724459303291  0.0000
  O3     O3        0.475995678959981    0.934564997109939    0.685789288656294  0.0000
  O1     O1        0.586026056914544    0.209687976027145    0.126964319448780  0.0000
  O3     O3        0.923066237237474    0.756956767812831    0.093344126475759  0.0000
  O1     O1        0.372867215112541    0.108313530535528    0.850932183965400  0.0000
  O1     O1        0.126483589193441    0.878984184639620    0.868818705125341  0.0000
  O3     O3        0.413401329821539    0.752355651415169    0.888325795969689  0.0000
  O1     O1        0.079373209399321    0.214222740000326    0.853967285366548  0.0000
  O1     O1        0.624367651400166    0.864394612625492    0.119820913349794  0.0000
  O3     O3        0.875009256467890    0.080544476413944    0.113583231915630  0.0000
  O1     O1        0.519936062434364    0.007408368498520    0.939253824786905  0.0000
  O3     O3        0.017035033258793    0.006724562835426    0.045015270029974  0.0000
  O3     O3        0.154719508957159    0.524037282189692    0.320550206107639  0.0000
  O1     O1        0.340302305903569    0.434261807983483    0.331852564489219  0.0000
  O1     O1        0.834427352623029    0.426196239858479    0.637566055718669  0.0000
  O1     O1        0.648742416335239    0.502485132026655    0.649718779598464  0.0000
  O1     O1        0.227568577024145    0.207939919221719    0.261624050588769  0.0000
  O3     O3        0.260190607275329    0.746286293504300    0.275979997521857  0.0000
  O1     O1        0.726602080777718    0.191472363305165    0.708615371234564  0.0000
  O1     O1        0.761551771910857    0.738802604210491    0.701519210387408  0.0000
  O1     O1        0.110356593316770    0.336430046295376    0.101428500373428  0.0000
  O3     O3        0.376935191933736    0.626654384126542    0.115210839768432  0.0000
  O1     O1        0.858803677520875    0.217427126829523    0.860433646813325  0.0000
  O1     O1        0.637089852195437    0.725423125920311    0.868300043918417  0.0000
  O1     O1        0.881478047344280    0.611460488180311    0.853726038289920  0.0000
  O1     O1        0.616036816846545    0.338559628032532    0.876112017610404  0.0000
  O3     O3        0.143065759844009    0.725257535967024    0.116306757657369  0.0000
  O1     O1        0.358477952703752    0.216942147307598    0.110303637222714  0.0000
  O1     O1        0.662383208178921    0.520553959981065    0.093693489007520  0.0000
  O1     O1        0.847384327486628    0.438948612852986    0.077899333312083  0.0000
  O3     O3        0.341048693098922    0.459762344506923    0.905215046339619  0.0000
  O1     O1        0.153840890220275    0.530814983532874    0.886378587315617  0.0000
  O1     O1        0.733893750574350    0.204972035226190    0.027138012906979  0.0000
  O1     O1        0.769447997159906    0.752279968843116    0.019444712301281  0.0000
  O1     O1        0.230470605614701    0.219928653245469    0.946136270011183  0.0000
  O3     O3        0.271090398776023    0.754713494466081    0.955703210943292  0.0000
