data_c01014.vasp
_audit_creation_method             Generated by GULP
_audit_author_name                 Salvador R. G. Balestra
_symmetry_space_group_name_H-M     'P 1             '
_symmetry_Int_Tables_number        1

loop_
_symmetry_equiv_pos_site_id
_symmetry_equiv_pos_as_xyz
_cell_length_a                       17.6034
_cell_length_b                        7.8071
_cell_length_c                       10.1844
_cell_angle_alpha                   89.2440
_cell_angle_beta                    89.8955
_cell_angle_gamma                   91.2086

loop_
_atom_site_label
_atom_site_type_symbol
_atom_site_fract_x
_atom_site_fract_y
_atom_site_fract_z
_atom_site_charge
  Ge     Ge        0.052090000000021    0.000000000000000    0.372269999999958  0.0000
  Ge     Ge        0.440308697885218    0.059919178743882    0.344237731909335  0.0000
  Ge     Ge        0.947446324561651    0.054803554119543    0.624573640556198  0.0000
  Ge     Ge        0.545313099290302    0.992309310676072    0.088493708301999  0.0000
  Ge     Ge        0.944783464472254    0.054407464042835    0.126231970961571  0.0000
  Ge     Ge        0.053465911194843    0.996020995571806    0.879316492370923  0.0000
  Ge     Ge        0.171695561390903    0.287611786951385    0.255962245434827  0.0000
  Ge     Ge        0.324306136787274    0.768913313663999    0.260787323290172  0.0000
  Ge     Ge        0.846763453889561    0.371527573517486    0.684156370566334  0.0000
  Ge     Ge        0.638852020632126    0.696402621573817    0.699291706503350  0.0000
  Ge     Ge        0.820695270296139    0.773135414680340    0.691213085284361  0.0000
  Ge     Ge        0.665676730439589    0.292751530909883    0.693997713753049  0.0000
  Ge     Ge        0.144857563813430    0.688814273668773    0.251800411511978  0.0000
  Ge     Ge        0.671140750369995    0.279085266138094    0.013896190921236  0.0000
  Ge     Ge        0.822497527231224    0.770585331117669    0.010302144477428  0.0000
  Ge     Ge        0.355455976642377    0.363145394537170    0.948932471781653  0.0000
  Ge     Ge        0.331612397183839    0.768824323468617    0.942668383076270  0.0000
  Ge     Ge        0.173649461275296    0.292597301655931    0.939819365651124  0.0000
  Ge     Ge        0.643452052654101    0.681549757642476    0.018576508080549  0.0000
  Ge     Ge        0.850158398169641    0.366604280475447    0.005631960762123  0.0000
  Si     Si        0.547671206996343    0.009635492583147    0.590163898385866  0.0000
  Si     Si        0.447042161668785    0.054870836349296    0.835128460567815  0.0000
  Si     Si        0.348281678215046    0.371011856157691    0.259426360208078  0.0000
  Si     Si        0.154277603362522    0.687404169623301    0.937463478621245  0.0000
  O1     O1        0.130304348002458    0.132037172965068    0.352005028167924  0.0000
  O1     O1        0.371392327856037    0.903355157598154    0.365509229584239  0.0000
  O1     O1        0.914244417126693    0.258615749886164    0.602214570018313  0.0000
  O3     O3        0.572094773841100    0.815658227680379    0.615761139736308  0.0000
  O1     O1        0.871595215257894    0.917453708685326    0.597370770518317  0.0000
  O3     O3        0.618741431028997    0.138104908750163    0.604106047025490  0.0000
  O1     O1        0.074171596850780    0.794830606409104    0.328570527445472  0.0000
  O3     O3        0.403757102921978    0.263718132102547    0.353135833735725  0.0000
  O1     O1        0.025925247307472    0.008572242586539    0.534774159926522  0.0000
  O3     O3        0.517607474798620    0.029184868577295    0.442366630976503  0.0000
  O1     O1        0.973158216444369    0.062562690463509    0.287567824829419  0.0000
  O1     O1        0.470893202980844    0.038579146505947    0.184555772588993  0.0000
  O1     O1        0.975016083457693    0.027602187850152    0.786659028466993  0.0000
  O2     O2        0.477218646906819    0.059737319129302    0.684667946726738  0.0000
  O1     O1        0.620032395446866    0.135218077974236    0.106916169310094  0.0000
  O1     O1        0.869085522475392    0.915535999192230    0.107169593035683  0.0000
  O3     O3        0.424267249032936    0.246931462029183    0.872199541945167  0.0000
  O3     O3        0.095072442467927    0.797847350656503    0.855358798638850  0.0000
  O3     O3        0.374217399592095    0.927440606732121    0.847119495795753  0.0000
  O1     O1        0.120974172275186    0.154572217162812    0.847176674552098  0.0000
  O1     O1        0.579481441099602    0.789471086817128    0.111478096350787  0.0000
  O1     O1        0.920570139277762    0.259756159761546    0.084121513074627  0.0000
  O3     O3        0.515030322745226    0.991788227113683    0.925491648224917  0.0000
  O1     O1        0.023236128721424    0.992565768239431    0.040150960870217  0.0000
  O1     O1        0.151580835544372    0.485931277369780    0.316589479429827  0.0000
  O3     O3        0.335130990289272    0.557846890149151    0.315304860258857  0.0000
  O1     O1        0.834751549832589    0.573858611015515    0.624136024255279  0.0000
  O1     O1        0.648235030502804    0.495700555543036    0.634006966399379  0.0000
  O3     O3        0.269128596910814    0.263878029645248    0.249637220230282  0.0000
  O1     O1        0.228749758174816    0.804495783443021    0.265791576433293  0.0000
  O1     O1        0.761512188492877    0.258678255473659    0.683195290452537  0.0000
  O1     O1        0.724750547235526    0.806067798754461    0.692610671870617  0.0000
  O1     O1        0.139891891845621    0.265879151620142    0.097519511505908  0.0000
  O1     O1        0.359038387859697    0.793004072021565    0.103315465247592  0.0000
  O1     O1        0.875201862850632    0.394557107085350    0.844309994099185  0.0000
  O1     O1        0.612101341888154    0.663263234095686    0.858869153885483  0.0000
  O1     O1        0.853509093528356    0.786198705556351    0.850475109549292  0.0000
  O1     O1        0.638208356728758    0.273634859030493    0.854927363129864  0.0000
  O3     O3        0.126244877367129    0.658021103090317    0.087021595869019  0.0000
  O3     O3        0.381135141213134    0.388521848927262    0.111957276287725  0.0000
  O1     O1        0.658599207303324    0.480711937125135    0.078132609597550  0.0000
  O1     O1        0.837419987186851    0.565526050858618    0.069679722497140  0.0000
  O1     O1        0.352747598921506    0.568470818917165    0.886665342308996  0.0000
  O3     O3        0.164274690532122    0.500585523458037    0.878003735888467  0.0000
  O1     O1        0.766974791610278    0.244858464895358    0.014442611450602  0.0000
  O1     O1        0.726548228518866    0.802917028139466    0.012924740195572  0.0000
  O1     O1        0.269598249051769    0.257480610565376    0.935289566883124  0.0000
  O3     O3        0.234205191147532    0.792548300492223    0.939730260207841  0.0000
