data_c01065.vasp
_audit_creation_method             Generated by GULP
_audit_author_name                 Salvador R. G. Balestra
_symmetry_space_group_name_H-M     'P 1             '
_symmetry_Int_Tables_number        1

loop_
_symmetry_equiv_pos_site_id
_symmetry_equiv_pos_as_xyz
_cell_length_a                       17.6806
_cell_length_b                        7.8132
_cell_length_c                        9.9551
_cell_angle_alpha                   88.0361
_cell_angle_beta                    89.7590
_cell_angle_gamma                   88.9822

loop_
_atom_site_label
_atom_site_type_symbol
_atom_site_fract_x
_atom_site_fract_y
_atom_site_fract_z
_atom_site_charge
  Ge     Ge        0.052090000000021    0.000000000000000    0.372269999999958  0.0000
  Ge     Ge        0.447237337652967    0.959848801368579    0.385740852022400  0.0000
  Ge     Ge        0.946269205119879    0.977583642497452    0.627249662203933  0.0000
  Ge     Ge        0.550604574480364    0.013562418665567    0.123586878126117  0.0000
  Ge     Ge        0.960355676491303    0.950443147809035    0.095449676835429  0.0000
  Ge     Ge        0.147443749525566    0.320616296656678    0.290857343879956  0.0000
  Ge     Ge        0.354630158322170    0.648028234623916    0.302687636239971  0.0000
  Ge     Ge        0.832717653217470    0.280415821938298    0.719876400390655  0.0000
  Ge     Ge        0.674899659434749    0.751641514571101    0.726630004986859  0.0000
  Ge     Ge        0.648062188069734    0.348244505336519    0.723905522694936  0.0000
  Ge     Ge        0.175458968370664    0.726329453102849    0.291665388725458  0.0000
  Ge     Ge        0.326932399873909    0.244602319739747    0.299399287956108  0.0000
  Ge     Ge        0.654477062652073    0.322343198105799    0.049042043217089  0.0000
  Ge     Ge        0.849562433162455    0.640028011787392    0.056701032043287  0.0000
  Ge     Ge        0.337102959642334    0.261210560392748    0.973817575479635  0.0000
  Ge     Ge        0.179323030467065    0.739685013282962    0.965354526400659  0.0000
  Ge     Ge        0.361157128200830    0.666311475478548    0.976530482999397  0.0000
  Ge     Ge        0.155020786219420    0.333935184101214    0.965158079262616  0.0000
  Ge     Ge        0.678398750736901    0.730574247477016    0.061969332763637  0.0000
  Ge     Ge        0.834135750015049    0.240954039296640    0.041928387058242  0.0000
  Si     Si        0.557861982231307    0.042061349842868    0.616653013240484  0.0000
  Si     Si        0.453645021246226    0.980276251873143    0.862260321395037  0.0000
  Si     Si        0.065970617602531    0.031175862110856    0.843314868318462  0.0000
  Si     Si        0.845450962448855    0.667047380398064    0.730271423597149  0.0000
  O1     O1        0.082797981765956    0.206450611009025    0.384422165997214  0.0000
  O1     O1        0.414827988431774    0.755444943572667    0.404958065245283  0.0000
  O1     O1        0.879708411898709    0.136600767491216    0.620904909297528  0.0000
  O3     O3        0.630056179709920    0.921226875390604    0.645108290523840  0.0000
  O3     O3        0.916405106201329    0.786364982991418    0.701865162438837  0.0000
  O3     O3        0.582799628847982    0.235884719393391    0.633019865009337  0.0000
  O1     O1        0.127224640991827    0.858830176609803    0.395307815566240  0.0000
  O1     O1        0.373857964721728    0.102709622957837    0.405438547685081  0.0000
  O1     O1        0.973474681592422    0.948874974661455    0.462365254773843  0.0000
  O3     O3        0.529027980453347    0.010955386536593    0.467123890072938  0.0000
  O1     O1        0.031662425439978    0.976651558055138    0.203270489999489  0.0000
  O1     O1        0.472597148808211    0.979354402326829    0.217295227386305  0.0000
  O3     O3        0.034206623403880    0.027809116659548    0.692401960587384  0.0000
  O2     O2        0.484492555269844    0.992535490398840    0.708396097919660  0.0000
  O1     O1        0.592443609490970    0.207317688904912    0.146158390443392  0.0000
  O1     O1        0.929122993260841    0.740904471139622    0.099904131676946  0.0000
  O3     O3        0.383259182190438    0.110046846350697    0.879576263406865  0.0000
  O3     O3        0.135170038533080    0.897775538758204    0.867312115140116  0.0000
  O3     O3        0.427956951772929    0.786061323451139    0.890465134125923  0.0000
  O3     O3        0.092748555075695    0.222046936242538    0.869930070120947  0.0000
  O1     O1        0.618174241042002    0.854849711622671    0.151449588076475  0.0000
  O1     O1        0.884678593001514    0.083738403312170    0.127371528693880  0.0000
  O3     O3        0.523281383473820    0.024213103330498    0.955424544137700  0.0000
  O3     O3        0.993044253023276    0.982427216450692    0.932696899583191  0.0000
  O1     O1        0.161147062717434    0.518527160698037    0.351103657606581  0.0000
  O1     O1        0.339034812958563    0.445683886146078    0.362790154895499  0.0000
  O3     O3        0.852331282006920    0.487078465233200    0.657302943323203  0.0000
  O1     O1        0.649244449561170    0.558071628578268    0.666133545869813  0.0000
  O1     O1        0.232342959824083    0.205878155197322    0.291458759310468  0.0000
  O1     O1        0.270647434251087    0.763980607831806    0.292431283122522  0.0000
  O1     O1        0.736696626711549    0.255732010416500    0.713037132253342  0.0000
  O3     O3        0.770520496710004    0.775598532909940    0.689077275378357  0.0000
  O1     O1        0.119498188065606    0.341484266021124    0.125304729142525  0.0000
  O1     O1        0.389102524992577    0.639255026473615    0.140747862741253  0.0000
  O1     O1        0.866223062559950    0.233405582181766    0.877962981007026  0.0000
  O1     O1        0.656933638745488    0.764988805842295    0.894452679438410  0.0000
  O3     O3        0.834414902768186    0.604920409326168    0.885779906944051  0.0000
  O1     O1        0.620293503607819    0.351916490127493    0.888184120460279  0.0000
  O1     O1        0.145421038788524    0.743757618527408    0.126495180495255  0.0000
  O1     O1        0.364421435245839    0.242157129147289    0.138840766598783  0.0000
  O1     O1        0.668940551088446    0.518178627235606    0.112282310912141  0.0000
  O1     O1        0.850847957039613    0.432689541126001    0.117448685763341  0.0000
  O1     O1        0.355120005856585    0.465629737591549    0.912588929376145  0.0000
  O1     O1        0.164002941248688    0.540006417248444    0.902766254082056  0.0000
  O1     O1        0.738659517210049    0.206611153084383    0.041194182259786  0.0000
  O1     O1        0.772056501735463    0.765331781740030    0.095773233712763  0.0000
  O1     O1        0.241502281382895    0.230399954632298    0.966991049905777  0.0000
  O1     O1        0.275042511344713    0.771108229664204    0.966738532887210  0.0000
