data_c01039.vasp
_audit_creation_method             Generated by GULP
_audit_author_name                 Salvador R. G. Balestra
_symmetry_space_group_name_H-M     'P 1             '
_symmetry_Int_Tables_number        1

loop_
_symmetry_equiv_pos_site_id
_symmetry_equiv_pos_as_xyz
_cell_length_a                       17.7415
_cell_length_b                        7.8068
_cell_length_c                       10.2351
_cell_angle_alpha                   88.1106
_cell_angle_beta                    88.7978
_cell_angle_gamma                   91.4748

loop_
_atom_site_label
_atom_site_type_symbol
_atom_site_fract_x
_atom_site_fract_y
_atom_site_fract_z
_atom_site_charge
  Ge     Ge        0.052090000000021    0.000000000000000    0.372269999999958  0.0000
  Ge     Ge        0.450622414186532    0.055199028715168    0.389839957711473  0.0000
  Ge     Ge        0.956298044346172    0.057781604159616    0.634225837837161  0.0000
  Ge     Ge        0.552336212924750    0.036126875275696    0.123705489919512  0.0000
  Ge     Ge        0.960535321153043    0.023286342254752    0.096826941867658  0.0000
  Ge     Ge        0.077246390325705    0.042263637095404    0.852655416020977  0.0000
  Ge     Ge        0.176849817830992    0.288240783169228    0.287660260068196  0.0000
  Ge     Ge        0.333644661311716    0.775585954261237    0.297475822744578  0.0000
  Ge     Ge        0.845323232894624    0.358448085658416    0.720896576422664  0.0000
  Ge     Ge        0.679013733524507    0.804580250716505    0.733012905633632  0.0000
  Ge     Ge        0.658816584857370    0.391421008071794    0.717590613776164  0.0000
  Ge     Ge        0.154478265443429    0.700991665186057    0.287950930671816  0.0000
  Ge     Ge        0.354699433633135    0.365775734914937    0.301161104815548  0.0000
  Ge     Ge        0.657532647902948    0.352681258374281    0.032117335853191  0.0000
  Ge     Ge        0.849609146725118    0.702477317071300    0.053332613954387  0.0000
  Ge     Ge        0.367684513053266    0.379923459061430    0.985156230140027  0.0000
  Ge     Ge        0.159729136633320    0.712200589271451    0.973054681304363  0.0000
  Ge     Ge        0.343452441042928    0.782508371681751    0.979392130085763  0.0000
  Ge     Ge        0.679766039630582    0.771355199970137    0.057978571273626  0.0000
  Ge     Ge        0.837738849540057    0.301943874023246    0.034574454530673  0.0000
  Si     Si        0.563113732494610    0.086422379138935    0.621644851815940  0.0000
  Si     Si        0.456584213819065    0.069995272399113    0.869330258989310  0.0000
  Si     Si        0.849102874919229    0.745554233731846    0.738206694819258  0.0000
  Si     Si        0.187053768211686    0.313779208261406    0.978235122522131  0.0000
  O1     O1        0.122952924663123    0.154019183740736    0.387551531210227  0.0000
  O1     O1        0.379343400874595    0.901798835536930    0.406350416727291  0.0000
  O1     O1        0.898875212531307    0.228362259277411    0.624905104818438  0.0000
  O3     O3        0.630576485382275    0.961160907848621    0.652743989888495  0.0000
  O3     O3        0.917048021780213    0.882964485503406    0.725889573989430  0.0000
  O3     O3        0.599085993249042    0.276975410252224    0.618141590870128  0.0000
  O1     O1        0.090396867042740    0.801017911875760    0.384813526790099  0.0000
  O1     O1        0.414348968939496    0.254525542888244    0.401098983812165  0.0000
  O1     O1        0.975542436630979    0.008593775597789    0.474259520554038  0.0000
  O3     O3        0.529261750487100    0.036619990047871    0.483945383870785  0.0000
  O1     O1        0.024980391190016    0.042704810702361    0.214315283635877  0.0000
  O1     O1        0.479362914019113    0.018456976347130    0.231324544717899  0.0000
  O1     O1        0.044702562102159    0.083887273428182    0.698234748291500  0.0000
  O2     O2        0.491681815255204    0.066786781620042    0.722809781958343  0.0000
  O1     O1        0.595721126197174    0.234578683893061    0.130168482009731  0.0000
  O1     O1        0.929737150999140    0.810858285573469    0.088633817098301  0.0000
  O3     O3        0.431285051493404    0.261443897368934    0.899544962714726  0.0000
  O1     O1        0.103061092359752    0.831879100147706    0.874315910357915  0.0000
  O3     O3        0.383803951832113    0.943989336088768    0.879995150346047  0.0000
  O3     O3        0.154555413667823    0.173660065189893    0.882671449123792  0.0000
  O1     O1        0.618161560020027    0.881368913930780    0.150700859314064  0.0000
  O1     O1        0.883085782983036    0.146345504491011    0.121193247095746  0.0000
  O3     O3        0.518349934243053    0.002312408763426    0.968260612283016  0.0000
  O1     O1        0.001780267825573    0.089025441296043    0.950519477116338  0.0000
  O1     O1        0.165007615795244    0.494370597033106    0.339538440358386  0.0000
  O1     O1        0.341136812647628    0.565911399229202    0.354944885155076  0.0000
  O3     O3        0.865633580279880    0.570022040659127    0.666195009224690  0.0000
  O1     O1        0.654043107886851    0.605794811885180    0.679105524184507  0.0000
  O1     O1        0.271068059832097    0.248077735253883    0.297772408671497  0.0000
  O1     O1        0.239107557215827    0.815082662453985    0.290659734398891  0.0000
  O1     O1        0.750109347377783    0.323566678572277    0.704894697871534  0.0000
  O3     O3        0.774097455568148    0.837161467553619    0.689496909203322  0.0000
  O3     O3        0.151825207875775    0.283838292908434    0.123906360993204  0.0000
  O1     O1        0.369811327511675    0.793252342961509    0.139421899165248  0.0000
  O1     O1        0.873308570499840    0.307762600599806    0.875867972234690  0.0000
  O1     O1        0.663688694397254    0.825382627217627    0.896498901820793  0.0000
  O3     O3        0.830683900774215    0.675608871764054    0.887052111784196  0.0000
  O1     O1        0.625499773803348    0.357946390022177    0.874890644765665  0.0000
  O1     O1        0.123210737070560    0.711752555987668    0.129187915912292  0.0000
  O1     O1        0.393960874796334    0.377916332822338    0.145140347171085  0.0000
  O1     O1        0.667897170872498    0.553913296409632    0.088187562624808  0.0000
  O1     O1        0.853420761975459    0.494230817042145    0.109433594286248  0.0000
  O1     O1        0.368893611259904    0.585744105299743    0.923015328481405  0.0000
  O3     O3        0.166694451947687    0.502881180286041    0.923428696252656  0.0000
  O1     O1        0.743242844403680    0.253374185402323    0.029511113784581  0.0000
  O1     O1        0.771414359700135    0.810589398548734    0.102297030834126  0.0000
  O3     O3        0.276691411225897    0.295798046461534    0.985120012211433  0.0000
  O1     O1        0.248294503045131    0.804384794700248    0.971980973482293  0.0000
