data_c01066.vasp
_audit_creation_method             Generated by GULP
_audit_author_name                 Salvador R. G. Balestra
_symmetry_space_group_name_H-M     'P 1             '
_symmetry_Int_Tables_number        1

loop_
_symmetry_equiv_pos_site_id
_symmetry_equiv_pos_as_xyz
_cell_length_a                       17.7095
_cell_length_b                        7.8702
_cell_length_c                       10.4231
_cell_angle_alpha                   89.9805
_cell_angle_beta                    90.9846
_cell_angle_gamma                   89.1514

loop_
_atom_site_label
_atom_site_type_symbol
_atom_site_fract_x
_atom_site_fract_y
_atom_site_fract_z
_atom_site_charge
  Ge     Ge        0.052090000000021    0.000000000000000    0.372269999999958  0.0000
  Ge     Ge        0.454248272979726    0.949211930970032    0.384549290058872  0.0000
  Ge     Ge        0.947129098988902    0.978868741135969    0.624569465576943  0.0000
  Ge     Ge        0.565417750464733    0.966078027911343    0.141706897761287  0.0000
  Ge     Ge        0.453592509077328    0.954574017375138    0.891015227781788  0.0000
  Ge     Ge        0.049078458368492    0.988628539673718    0.886678681801857  0.0000
  Ge     Ge        0.151059805521575    0.307626348743240    0.271034206362634  0.0000
  Ge     Ge        0.354996163498252    0.641713396307840    0.273486296744410  0.0000
  Ge     Ge        0.843685467631720    0.288136133690996    0.706083729370590  0.0000
  Ge     Ge        0.651348541820523    0.659160780689604    0.719701875481106  0.0000
  Ge     Ge        0.831741823742165    0.696169946122864    0.707013028595422  0.0000
  Ge     Ge        0.663175663153327    0.247946407569250    0.716218970785169  0.0000
  Ge     Ge        0.174903986968157    0.710265356194557    0.266689027963389  0.0000
  Ge     Ge        0.331225575663978    0.236810509897518    0.271189963222752  0.0000
  Ge     Ge        0.673231865417183    0.257639071906917    0.024556048913565  0.0000
  Ge     Ge        0.839690238860676    0.683841691988792    0.016011895603123  0.0000
  Ge     Ge        0.329647105510557    0.236075568385109    0.958986856892734  0.0000
  Ge     Ge        0.174439708370932    0.706017110128445    0.953459404014823  0.0000
  Ge     Ge        0.354884229431655    0.639369895783221    0.959647534607476  0.0000
  Ge     Ge        0.149044471448012    0.304422741532850    0.957748507130470  0.0000
  Si     Si        0.550808277622929    0.966271307494033    0.639779821164858  0.0000
  Si     Si        0.945737046072656    0.975960642132293    0.127720645148785  0.0000
  Si     Si        0.659636809410140    0.655655544140554    0.023770256922134  0.0000
  Si     Si        0.852780858892537    0.286532365585882    0.010018069411597  0.0000
  O1     O1        0.086111940378830    0.200922446683781    0.359371834420870  0.0000
  O1     O1        0.421327925065956    0.747967311921504    0.362198121372074  0.0000
  O1     O1        0.903444900837975    0.174528304684709    0.611337187811471  0.0000
  O3     O3        0.589640614513013    0.780861799793606    0.627407126944232  0.0000
  O1     O1        0.880755222901631    0.822853957925760    0.606194263962225  0.0000
  O3     O3        0.611131741233754    0.114490062592062    0.618717946500675  0.0000
  O1     O1        0.124305598340652    0.857690130389739    0.350142451173045  0.0000
  O1     O1        0.381629110261429    0.091549671304018    0.359961677063762  0.0000
  O1     O1        0.021608069575325    0.963535993759203    0.525558980951643  0.0000
  O3     O3        0.480396168772537    0.979207371918927    0.544342031060318  0.0000
  O3     O3        0.972586541367527    0.976501488789038    0.274776772226992  0.0000
  O1     O1        0.533164560879474    0.979161078460779    0.295298190801562  0.0000
  O1     O1        0.977591085182487    0.953753864043748    0.781737235065171  0.0000
  O3     O3        0.524645044242087    0.990583105657613    0.786189779139169  0.0000
  O1     O1        0.631187238139929    0.123262624968571    0.127285389626690  0.0000
  O3     O3        0.886624028914928    0.823893251613804    0.113715319996487  0.0000
  O1     O1        0.378651893589768    0.094087511424598    0.868424168189822  0.0000
  O1     O1        0.123529560476735    0.848446258487975    0.863699124612424  0.0000
  O1     O1        0.419874785283755    0.752159863033388    0.876200861659476  0.0000
  O1     O1        0.083865095566984    0.189978391396504    0.872365522261433  0.0000
  O3     O3        0.607671063300971    0.770188854928647    0.113335402611591  0.0000
  O2     O2        0.908112379640091    0.157860805767499    0.088004491497764  0.0000
  O1     O1        0.488319242543652    0.993970473235439    0.043202435195252  0.0000
  O3     O3        0.018742396340086    0.946984624209494    0.041675770047273  0.0000
  O1     O1        0.161870041761427    0.509224640441386    0.328578833951715  0.0000
  O1     O1        0.344419190514896    0.439669558388686    0.329815526052010  0.0000
  O1     O1        0.836000386904522    0.490875269630400    0.650666663542271  0.0000
  O1     O1        0.652670568236787    0.455307016839510    0.664351557971230  0.0000
  O1     O1        0.236230436837157    0.198330542470218    0.275587961455324  0.0000
  O1     O1        0.269836750743061    0.750721779494679    0.275930311516785  0.0000
  O1     O1        0.756984731320914    0.193408625050152    0.707101194722202  0.0000
  O1     O1        0.737957737595745    0.752129974842743    0.711909609902120  0.0000
  O1     O1        0.120120453303401    0.314995458886942    0.114114437927595  0.0000
  O1     O1        0.384738572667448    0.633579851470623    0.117496423428636  0.0000
  O3     O3        0.878957792999534    0.293376020585681    0.863351037960476  0.0000
  O3     O3        0.624809969739180    0.657103949524955    0.879674050227060  0.0000
  O1     O1        0.868464051697187    0.703975409962117    0.861609050683553  0.0000
  O1     O1        0.635422318040837    0.235950265540066    0.873371894368071  0.0000
  O1     O1        0.145197072910672    0.710029233307071    0.109936845682189  0.0000
  O1     O1        0.361411161300683    0.228994205149751    0.115992680996300  0.0000
  O3     O3        0.661736383890892    0.464880094739775    0.077584016790893  0.0000
  O3     O3        0.855826837512443    0.475616075784461    0.068068460109959  0.0000
  O1     O1        0.344103269425164    0.438987467977167    0.901200385227795  0.0000
  O1     O1        0.159737458675460    0.502806547119945    0.895585184135588  0.0000
  O3     O3        0.768792044231411    0.214264486032807    0.014454619324069  0.0000
  O3     O3        0.744043801069974    0.728453038989874    0.019759028554987  0.0000
  O1     O1        0.234837404692052    0.197153457814350    0.956548936692863  0.0000
  O1     O1        0.269150428680124    0.746408299441236    0.952304040059017  0.0000
