data_c01045.vasp
_audit_creation_method             Generated by GULP
_audit_author_name                 Salvador R. G. Balestra
_symmetry_space_group_name_H-M     'P 1             '
_symmetry_Int_Tables_number        1

loop_
_symmetry_equiv_pos_site_id
_symmetry_equiv_pos_as_xyz
_cell_length_a                       17.6095
_cell_length_b                        7.8360
_cell_length_c                       10.1113
_cell_angle_alpha                   89.0400
_cell_angle_beta                    89.4175
_cell_angle_gamma                   91.6280

loop_
_atom_site_label
_atom_site_type_symbol
_atom_site_fract_x
_atom_site_fract_y
_atom_site_fract_z
_atom_site_charge
  Ge     Ge        0.052090000000021    0.000000000000000    0.372269999999958  0.0000
  Ge     Ge        0.441719353789376    0.064083509181527    0.342569940588399  0.0000
  Ge     Ge        0.943979116066322    0.064152208879251    0.622519555190184  0.0000
  Ge     Ge        0.548519486846694    0.003596818080770    0.086882017921138  0.0000
  Ge     Ge        0.947783049228488    0.065246341599138    0.121249261862155  0.0000
  Ge     Ge        0.053582101383592    0.006848218054365    0.869161341643257  0.0000
  Ge     Ge        0.173004083036975    0.290960835921209    0.254450299302732  0.0000
  Ge     Ge        0.326771774970354    0.769397577543729    0.261106504330491  0.0000
  Ge     Ge        0.849703817853646    0.385157465865822    0.683290651732661  0.0000
  Ge     Ge        0.643709871219491    0.709385651470929    0.693513712151618  0.0000
  Ge     Ge        0.666670984177389    0.310036650929936    0.690602965612502  0.0000
  Ge     Ge        0.145577756951383    0.689876673687571    0.254645620037172  0.0000
  Ge     Ge        0.672910501397513    0.293511334696523    0.011101473255411  0.0000
  Ge     Ge        0.824819687040116    0.779395480420949    0.002072977662816  0.0000
  Ge     Ge        0.358989596281340    0.369049546952679    0.947462896824003  0.0000
  Ge     Ge        0.153454906385529    0.694022708912181    0.931168711958444  0.0000
  Ge     Ge        0.334824380584732    0.775814415722465    0.940797995553223  0.0000
  Ge     Ge        0.177873732688695    0.293411823866322    0.934113841636889  0.0000
  Ge     Ge        0.645939241442487    0.694220498838310    0.015901568946375  0.0000
  Ge     Ge        0.853815167151982    0.375913678204874    0.002674453540822  0.0000
  Si     Si        0.552532489941007    0.023020665760576    0.584225299105471  0.0000
  Si     Si        0.451755102258833    0.064064140290659    0.832484043089014  0.0000
  Si     Si        0.823111596800997    0.777268308915092    0.687075745741014  0.0000
  Si     Si        0.349908695491812    0.373840386408117    0.260048569995667  0.0000
  O1     O1        0.130403210075290    0.132527691906032    0.347863196117288  0.0000
  O1     O1        0.373604401955654    0.905084208344009    0.365712745069545  0.0000
  O1     O1        0.910698611069078    0.264811887475883    0.591959623437299  0.0000
  O3     O3        0.579877446858461    0.831982054898412    0.609173910474392  0.0000
  O3     O3        0.869047547261139    0.918408225588356    0.600185459745139  0.0000
  O3     O3        0.622595490562685    0.154537510826469    0.597593571649745  0.0000
  O1     O1        0.077173864715045    0.795141411734307    0.339400698295372  0.0000
  O3     O3        0.404188463089184    0.265174547272153    0.354257258598459  0.0000
  O1     O1        0.023181146263780    0.015025579060793    0.534804542371020  0.0000
  O3     O3        0.520983148069817    0.037197773761368    0.436562248747929  0.0000
  O1     O1        0.973926079759098    0.058165106143665    0.284539204005326  0.0000
  O1     O1        0.472222130715188    0.046279974897315    0.180997215686171  0.0000
  O1     O1        0.973681781582600    0.052599039970681    0.785031126963634  0.0000
  O2     O2        0.481824497736110    0.069438692703790    0.680264758339722  0.0000
  O1     O1        0.622821291071562    0.147614432190763    0.106310704682470  0.0000
  O1     O1        0.872264525354878    0.928136170817843    0.092053367583327  0.0000
  O3     O3        0.427956020018991    0.254761433156063    0.869363312046209  0.0000
  O1     O1        0.089585386613480    0.808178992369512    0.842085310822592  0.0000
  O3     O3        0.380519188882436    0.932139766235127    0.844899092336545  0.0000
  O1     O1        0.127311716956669    0.152832740372831    0.840617261227404  0.0000
  O1     O1        0.582183753612239    0.801403451096474    0.109712006340605  0.0000
  O1     O1        0.921378910108656    0.271203176035680    0.089492544781041  0.0000
  O3     O3        0.520521519939768    0.005359484942815    0.921935684028828  0.0000
  O1     O1        0.026812710006331    0.009712642890295    0.034260976849473  0.0000
  O1     O1        0.153322858517857    0.486757331544009    0.318505155385167  0.0000
  O3     O3        0.337568592929191    0.559566463407347    0.317338501138554  0.0000
  O3     O3        0.838918658455964    0.591826377682279    0.625918850196756  0.0000
  O1     O1        0.647958839899915    0.509744345477208    0.627392791183071  0.0000
  O3     O3        0.270446153576388    0.267562365547277    0.249385381728001  0.0000
  O1     O1        0.231193295048120    0.802422148742705    0.262396266192148  0.0000
  O1     O1        0.762650244102360    0.281457193375642    0.685212567185291  0.0000
  O3     O3        0.733497040720061    0.808133935775107    0.687799323111224  0.0000
  O1     O1        0.142795829089190    0.278552753255336    0.093918260866517  0.0000
  O1     O1        0.362470874294334    0.793893067791507    0.102733482405173  0.0000
  O1     O1        0.884007885237681    0.391201812295537    0.840933705237298  0.0000
  O1     O1        0.615993567858594    0.679803523632847    0.854334822677403  0.0000
  O3     O3        0.853645572401954    0.783647005411019    0.837077020635065  0.0000
  O1     O1        0.638027581326395    0.289808152270780    0.852520962520162  0.0000
  O1     O1        0.121569847178085    0.669005938112705    0.091956508431220  0.0000
  O3     O3        0.383996821985128    0.393001293082531    0.111757905900251  0.0000
  O1     O1        0.660021592398249    0.493835539294473    0.075847957020318  0.0000
  O1     O1        0.841767121291847    0.576796988384239    0.062239773487472  0.0000
  O1     O1        0.353356797269990    0.573506780681829    0.885371201310017  0.0000
  O1     O1        0.166123703172490    0.496071310226979    0.869121213681149  0.0000
  O1     O1        0.768619003548102    0.260802611803890    0.008737930819450  0.0000
  O1     O1        0.729766187933295    0.814055311301937    0.011459142046464  0.0000
  O1     O1        0.273797450967151    0.259768865107709    0.933920743901445  0.0000
  O1     O1        0.239126656831448    0.806331852281675    0.933949434232170  0.0000
