data_c01018.vasp
_audit_creation_method             Generated by GULP
_audit_author_name                 Salvador R. G. Balestra
_symmetry_space_group_name_H-M     'P 1             '
_symmetry_Int_Tables_number        1

loop_
_symmetry_equiv_pos_site_id
_symmetry_equiv_pos_as_xyz
_cell_length_a                       17.6284
_cell_length_b                        7.8042
_cell_length_c                       10.2069
_cell_angle_alpha                   90.4249
_cell_angle_beta                    89.5743
_cell_angle_gamma                   91.0243

loop_
_atom_site_label
_atom_site_type_symbol
_atom_site_fract_x
_atom_site_fract_y
_atom_site_fract_z
_atom_site_charge
  Ge     Ge        0.052090000000021    0.000000000000000    0.372269999999958  0.0000
  Ge     Ge        0.442776692116829    0.052121567911214    0.360783455868142  0.0000
  Ge     Ge        0.946775511235060    0.033811159522704    0.627016620285284  0.0000
  Ge     Ge        0.546821261708945    0.977753206839428    0.101660499576642  0.0000
  Ge     Ge        0.940448151820451    0.036333581007122    0.132149421138413  0.0000
  Ge     Ge        0.050140393090943    0.981606825705243    0.883467234009743  0.0000
  Ge     Ge        0.169664407794424    0.295065252737556    0.268184456001535  0.0000
  Ge     Ge        0.322208016564533    0.771040558904754    0.270334463855065  0.0000
  Ge     Ge        0.846263070945690    0.347212444730816    0.695862860960190  0.0000
  Ge     Ge        0.640911919606766    0.675211725457973    0.713306143486224  0.0000
  Ge     Ge        0.822237059984876    0.752963883871784    0.705561862003583  0.0000
  Ge     Ge        0.666421659398481    0.270409002991909    0.703408126145766  0.0000
  Ge     Ge        0.350822086408483    0.369262831647516    0.280658006665857  0.0000
  Ge     Ge        0.670918840594266    0.261428721997213    0.021906898955449  0.0000
  Ge     Ge        0.824084012188961    0.740025580788831    0.021242102296201  0.0000
  Ge     Ge        0.356430861564978    0.348041785772933    0.963413232454692  0.0000
  Ge     Ge        0.152980690849424    0.671199225795411    0.939658072233657  0.0000
  Ge     Ge        0.331443496237566    0.756306746007041    0.950845152147021  0.0000
  Ge     Ge        0.175097748448142    0.268492319717502    0.953201798842716  0.0000
  Ge     Ge        0.643718712385659    0.661890950009822    0.031680489474982  0.0000
  Si     Si        0.549770940476238    0.985091524318742    0.601540425271538  0.0000
  Si     Si        0.449575989019824    0.038885840546220    0.847375125355150  0.0000
  Si     Si        0.146835444867150    0.689764922697347    0.253780835872689  0.0000
  Si     Si        0.846965621003514    0.340389531505281    0.008854269775610  0.0000
  O1     O1        0.121062380060826    0.156228428000393    0.368042336400633  0.0000
  O1     O1        0.364711970707474    0.917657515092601    0.371316864814970  0.0000
  O1     O1        0.913035719508914    0.237771992308703    0.608364147975032  0.0000
  O3     O3        0.575025158631572    0.793083672927593    0.629082061101964  0.0000
  O1     O1        0.871432359490798    0.892812834711901    0.607959184620377  0.0000
  O3     O3        0.619681341321272    0.117274646084124    0.610192805702433  0.0000
  O3     O3        0.081682284770249    0.799528065611672    0.321848067533087  0.0000
  O1     O1        0.412115906281380    0.257505106697271    0.377752072824262  0.0000
  O1     O1        0.023675898747372    0.985630099115647    0.534122768526766  0.0000
  O3     O3        0.517624976729082    0.993883582715650    0.455069313281565  0.0000
  O1     O1        0.971111931117298    0.053755595404236    0.291249446415849  0.0000
  O1     O1        0.473831652214201    0.030050921959799    0.200038010888962  0.0000
  O1     O1        0.974518929244611    0.021545244790120    0.789025730020842  0.0000
  O2     O2        0.480661742135235    0.041194541416042    0.697565063402640  0.0000
  O1     O1        0.624366399680588    0.114459788798837    0.115921067561631  0.0000
  O1     O1        0.871770339354626    0.878407547982780    0.122913082414534  0.0000
  O3     O3        0.423986695756445    0.230753399983830    0.880936096092088  0.0000
  O1     O1        0.085570361106307    0.778810029589024    0.857340093449297  0.0000
  O3     O3        0.379173395636967    0.906244109769878    0.856993539356671  0.0000
  O1     O1        0.125234390304497    0.123655812628308    0.861116394223774  0.0000
  O1     O1        0.579579754889916    0.773991636628276    0.123639262106157  0.0000
  O3     O3        0.909239132751985    0.236405825327979    0.086233528891956  0.0000
  O3     O3        0.517159587880722    0.981825056136485    0.939407490130663  0.0000
  O1     O1        0.020100981496986    0.987002053997482    0.044269126421292  0.0000
  O3     O3        0.156422916746574    0.505776954401800    0.321267622919742  0.0000
  O1     O1        0.339839173906654    0.573027290095820    0.336237014600939  0.0000
  O1     O1        0.835697416949849    0.550250117339381    0.641100650634061  0.0000
  O1     O1        0.650317908675013    0.474003842853878    0.646255354172790  0.0000
  O1     O1        0.265138313629580    0.259793374656559    0.274998170089278  0.0000
  O3     O3        0.225194585684691    0.800303739058199    0.262940784056685  0.0000
  O1     O1        0.761766062640493    0.233990139550960    0.690439956642693  0.0000
  O1     O1        0.726340220289719    0.785789535844243    0.709754941059566  0.0000
  O1     O1        0.139377069831497    0.259400441870240    0.110935016475047  0.0000
  O1     O1        0.357405612972940    0.779661781118564    0.112380705648198  0.0000
  O3     O3        0.872861903168467    0.365318766885163    0.859180060186332  0.0000
  O1     O1        0.612955760610860    0.645036306859509    0.871886492562647  0.0000
  O1     O1        0.856115648270846    0.769212653263407    0.863674341159830  0.0000
  O1     O1        0.638036696583314    0.252894465570268    0.863701597637645  0.0000
  O3     O3        0.127981103215236    0.647782577152305    0.103814320842110  0.0000
  O1     O1        0.385029345166567    0.376196973508901    0.122203704651867  0.0000
  O1     O1        0.654095629679968    0.460109847682042    0.090082780940389  0.0000
  O3     O3        0.835749341661148    0.528371849699563    0.070330700597022  0.0000
  O1     O1        0.348346934098219    0.549332440358171    0.898747658503269  0.0000
  O1     O1        0.164012305593157    0.467690593044703    0.883280817536267  0.0000
  O3     O3        0.768034595119199    0.231606592473641    0.014915566821634  0.0000
  O1     O1        0.728623657949290    0.775089908443751    0.028025497642860  0.0000
  O1     O1        0.271241916064804    0.237073567776428    0.959292807486003  0.0000
  O1     O1        0.236346903524171    0.789252460081321    0.934699343409452  0.0000
