data_c01072.vasp
_audit_creation_method             Generated by GULP
_audit_author_name                 Salvador R. G. Balestra
_symmetry_space_group_name_H-M     'P 1             '
_symmetry_Int_Tables_number        1

loop_
_symmetry_equiv_pos_site_id
_symmetry_equiv_pos_as_xyz
_cell_length_a                       17.5558
_cell_length_b                        7.8229
_cell_length_c                       10.2903
_cell_angle_alpha                   89.1024
_cell_angle_beta                    91.0535
_cell_angle_gamma                   91.2247

loop_
_atom_site_label
_atom_site_type_symbol
_atom_site_fract_x
_atom_site_fract_y
_atom_site_fract_z
_atom_site_charge
  Ge     Ge        0.052090000000021    0.000000000000000    0.372269999999958  0.0000
  Ge     Ge        0.451316208731155    0.052706663146256    0.387038415568828  0.0000
  Ge     Ge        0.947937341303285    0.046815963839129    0.626265905314740  0.0000
  Ge     Ge        0.560226041365329    0.991072547110631    0.144318633595714  0.0000
  Ge     Ge        0.453440590136725    0.066670236142160    0.888199464163655  0.0000
  Ge     Ge        0.051380700524994    0.002642779520443    0.889414517323860  0.0000
  Ge     Ge        0.175523487530344    0.285920663948883    0.267235089736669  0.0000
  Ge     Ge        0.327473222128086    0.771361707803399    0.273150967444504  0.0000
  Ge     Ge        0.849129931520501    0.357419500756700    0.701586436190043  0.0000
  Ge     Ge        0.645194334152660    0.686012156780393    0.712811655892247  0.0000
  Ge     Ge        0.826511860560561    0.762314319861600    0.706504734472185  0.0000
  Ge     Ge        0.668382666283951    0.281278447931671    0.711705642189887  0.0000
  Ge     Ge        0.147210461536746    0.688695287434591    0.263147458542004  0.0000
  Ge     Ge        0.356775728561740    0.367863590570454    0.268025773947802  0.0000
  Ge     Ge        0.677321810554885    0.277574233444112    0.026107354418208  0.0000
  Ge     Ge        0.834904270411259    0.748690656974172    0.020955400569594  0.0000
  Ge     Ge        0.353714577290081    0.378032959984404    0.949172575744834  0.0000
  Ge     Ge        0.329118853852804    0.778448680506327    0.958202614082333  0.0000
  Ge     Ge        0.172818459964537    0.299059086729020    0.952241127914735  0.0000
  Ge     Ge        0.651294551875406    0.677354798764182    0.029375578814419  0.0000
  Si     Si        0.550281178779188    0.998474550077084    0.639854712351891  0.0000
  Si     Si        0.946362278649802    0.044566040703854    0.130161989624283  0.0000
  Si     Si        0.152358055506866    0.693950495869170    0.954026936962736  0.0000
  Si     Si        0.856264661102909    0.352081438155468    0.008725609802132  0.0000
  O1     O1        0.128995730850592    0.135452936058305    0.360039093060389  0.0000
  O1     O1        0.374038940357862    0.918899716282591    0.367408810239396  0.0000
  O1     O1        0.912790751124384    0.249840183539860    0.611465869820562  0.0000
  O3     O3        0.580842888932548    0.808154545699328    0.623317412977028  0.0000
  O1     O1        0.873692169394808    0.901792949044017    0.605975132153496  0.0000
  O3     O3        0.617617951841031    0.137992059472636    0.615853490888991  0.0000
  O1     O1        0.076887192855259    0.794726833943780    0.338771712291271  0.0000
  O1     O1        0.425905245267542    0.258796358222596    0.352453305913783  0.0000
  O1     O1        0.023121234264813    0.009617183672700    0.530832057060617  0.0000
  O3     O3        0.477744173889630    0.036658750740126    0.550571972048626  0.0000
  O3     O3        0.973320524561484    0.060062139797587    0.279186080031581  0.0000
  O1     O1        0.529151042373786    0.996008887158849    0.300995946932587  0.0000
  O1     O1        0.976032031526177    0.021083292262735    0.787242051507924  0.0000
  O3     O3        0.527209737477874    0.016557311789972    0.790885997120072  0.0000
  O1     O1        0.639984235597666    0.119812697087522    0.122493458331416  0.0000
  O3     O3        0.883090532948551    0.893992188458011    0.118105595270967  0.0000
  O1     O1        0.419428594088500    0.268988188384641    0.863713988408745  0.0000
  O3     O3        0.093194780926191    0.804597950267391    0.871023055638839  0.0000
  O1     O1        0.376596104491469    0.928081326544067    0.868137998028186  0.0000
  O1     O1        0.117775071228990    0.163165990765785    0.860310844963177  0.0000
  O1     O1        0.585453664643698    0.784795049835276    0.114198911559351  0.0000
  O2     O2        0.915536415325539    0.229833371572706    0.084535504251371  0.0000
  O1     O1        0.486141570188515    0.057099911848585    0.046923460704498  0.0000
  O3     O3        0.020642599529479    0.002397590547800    0.048985469302110  0.0000
  O1     O1        0.158652737247692    0.486845081435324    0.325942003905721  0.0000
  O1     O1        0.343941708833440    0.566919022021881    0.330362477322019  0.0000
  O1     O1        0.836624788411120    0.560010570943994    0.644719340755993  0.0000
  O1     O1        0.653186746173223    0.485952807407885    0.651429260969861  0.0000
  O1     O1        0.271856342577249    0.253374021941060    0.272524902689184  0.0000
  O1     O1        0.231249831968522    0.804737475039157    0.276369217496654  0.0000
  O1     O1        0.763915711286328    0.243942966471998    0.702541458960306  0.0000
  O1     O1        0.730766079871743    0.797735584446147    0.712538633318639  0.0000
  O1     O1        0.143518582297620    0.269562855584522    0.109216163738254  0.0000
  O1     O1        0.360872662585700    0.791506047109996    0.117200890685355  0.0000
  O3     O3        0.882552213643986    0.376767853645377    0.861286651856114  0.0000
  O1     O1        0.618625461507084    0.661658172622983    0.871452143350504  0.0000
  O1     O1        0.862515779837001    0.774893068598383    0.863606610508385  0.0000
  O1     O1        0.639662889081170    0.266036634850624    0.870698381045258  0.0000
  O3     O3        0.124330166423187    0.660996110133404    0.100539178760997  0.0000
  O1     O1        0.382786350193961    0.393741142282120    0.109359815225306  0.0000
  O1     O1        0.659316764527211    0.473202321022986    0.090665528654273  0.0000
  O3     O3        0.852008080497208    0.537983862058104    0.072064146521903  0.0000
  O1     O1        0.345455106971500    0.582103669477007    0.891640522477038  0.0000
  O3     O3        0.163674826853076    0.508844651270342    0.893995150304086  0.0000
  O3     O3        0.774449167133136    0.256640915171319    0.010219004120000  0.0000
  O1     O1        0.739069283509274    0.780111221644094    0.032812233662493  0.0000
  O1     O1        0.268556402149395    0.263217879964891    0.944939851967737  0.0000
  O3     O3        0.231509391054685    0.803615792511596    0.960844731643062  0.0000
