data_c01081.vasp
_audit_creation_method             Generated by GULP
_audit_author_name                 Salvador R. G. Balestra
_symmetry_space_group_name_H-M     'P 1             '
_symmetry_Int_Tables_number        1

loop_
_symmetry_equiv_pos_site_id
_symmetry_equiv_pos_as_xyz
_cell_length_a                       17.4608
_cell_length_b                        7.8368
_cell_length_c                       10.3113
_cell_angle_alpha                   89.6501
_cell_angle_beta                    90.6872
_cell_angle_gamma                   87.5456

loop_
_atom_site_label
_atom_site_type_symbol
_atom_site_fract_x
_atom_site_fract_y
_atom_site_fract_z
_atom_site_charge
  Ge     Ge        0.052090000000021    0.000000000000000    0.372269999999958  0.0000
  Ge     Ge        0.454514040863549    0.944134040884447    0.413660072609038  0.0000
  Ge     Ge        0.947368761554968    0.948468145650493    0.625336034823789  0.0000
  Ge     Ge        0.563704488908396    0.004561156702580    0.169924959719025  0.0000
  Ge     Ge        0.450518445629646    0.951681991148929    0.922637570903099  0.0000
  Ge     Ge        0.053721729841918    0.013143220131052    0.877957440081178  0.0000
  Ge     Ge        0.146984491362844    0.318798382253574    0.307105483626753  0.0000
  Ge     Ge        0.361691509507367    0.632325776076470    0.308528869065075  0.0000
  Ge     Ge        0.827274498333353    0.239895746705951    0.736408075057076  0.0000
  Ge     Ge        0.666797045339113    0.718574562675902    0.746223003239584  0.0000
  Ge     Ge        0.849509246977848    0.641213876497809    0.739080077500526  0.0000
  Ge     Ge        0.643390139587220    0.309836485024420    0.748515272991904  0.0000
  Ge     Ge        0.180132047296638    0.716533028694543    0.310778764353637  0.0000
  Ge     Ge        0.327543063922818    0.232783598798627    0.303159323736309  0.0000
  Ge     Ge        0.851157004843402    0.634638201172516    0.058518989688858  0.0000
  Ge     Ge        0.323645197190415    0.237751615984159    0.985186738177125  0.0000
  Ge     Ge        0.176562261112059    0.723714896401201    0.993040384711741  0.0000
  Ge     Ge        0.357751503955532    0.632766566843734    0.991585315195976  0.0000
  Ge     Ge        0.143282287591258    0.325785328589320    0.989812152209008  0.0000
  Ge     Ge        0.838120149538976    0.237739979847249    0.048026659673658  0.0000
  Si     Si        0.548191359141331    0.008059360738651    0.669808068220025  0.0000
  Si     Si        0.952169614380993    0.936217185133491    0.120603489131899  0.0000
  Si     Si        0.656334740717121    0.304601173536364    0.050536647633242  0.0000
  Si     Si        0.672065589969117    0.701613402194853    0.054220777073164  0.0000
  O1     O1        0.079064867087466    0.206377160539841    0.386999990512394  0.0000
  O1     O1        0.431578505222054    0.735443301738771    0.391980728851859  0.0000
  O1     O1        0.871139092260526    0.090575090621821    0.640022977544578  0.0000
  O3     O3        0.615932696643838    0.864022663847480    0.649682741064784  0.0000
  O1     O1        0.918741779093919    0.746558220403004    0.660350385592086  0.0000
  O3     O3        0.580079095160676    0.196768086163513    0.655340729001903  0.0000
  O1     O1        0.132997305862859    0.871143467929600    0.399125646882392  0.0000
  O1     O1        0.372185411942908    0.064339402762804    0.382893357194590  0.0000
  O1     O1        0.977032120611234    0.954412760934197    0.467265149929938  0.0000
  O3     O3        0.477619955101779    0.978294045026246    0.575907881550302  0.0000
  O3     O3        0.024838183771556    0.955332523897899    0.212176434668128  0.0000
  O1     O1        0.532645500941700    0.000416868805942    0.326847265889141  0.0000
  O1     O1        0.024650660611025    0.000008280466394    0.719388374024715  0.0000
  O3     O3        0.523577701420683    0.988370264515624    0.819099040438604  0.0000
  O3     O3        0.608242966271044    0.196401161398302    0.149858364668147  0.0000
  O3     O3        0.913909449204477    0.755898183995927    0.144022547878784  0.0000
  O1     O1        0.369188098012606    0.080413890866446    0.897784371956077  0.0000
  O1     O1        0.136055223732162    0.889805697838747    0.904615912977550  0.0000
  O1     O1        0.424220708927339    0.744414353705503    0.909057534931362  0.0000
  O1     O1        0.073288319788923    0.222163959884674    0.907798485691749  0.0000
  O3     O3        0.623657273942826    0.825133912717331    0.147356266401036  0.0000
  O3     O3        0.887460064020396    0.086379786682229    0.141995690535889  0.0000
  O1     O1        0.482693169940110    0.999169085209180    0.076825153136704  0.0000
  O3     O3        0.979828721682224    0.941442510391505    0.971772068587704  0.0000
  O1     O1        0.128535301324281    0.533770063174829    0.318265713983370  0.0000
  O1     O1        0.379329990944073    0.414383677716326    0.314019909732495  0.0000
  O1     O1        0.839126169182401    0.441841888135767    0.675617718511358  0.0000
  O1     O1        0.647792368632859    0.515255956983150    0.695020839631917  0.0000
  O1     O1        0.238115842996641    0.273604512237325    0.366773282352915  0.0000
  O1     O1        0.271357358835209    0.674333682833286    0.369885541574816  0.0000
  O1     O1        0.731370552812149    0.205617136687983    0.741171123784168  0.0000
  O1     O1        0.762207405548407    0.752907674053944    0.731389355273185  0.0000
  O1     O1        0.143430144763517    0.256127981559254    0.147734939979641  0.0000
  O1     O1        0.363076057893222    0.700001503417441    0.150121206751205  0.0000
  O1     O1        0.867610823938269    0.221149752067133    0.890087843449001  0.0000
  O3     O3        0.641148889820103    0.733202675704125    0.908454661625909  0.0000
  O1     O1        0.874785747937100    0.611891290121980    0.899087339592469  0.0000
  O3     O3        0.615867625552273    0.306952574224899    0.910166438421498  0.0000
  O1     O1        0.187918305944351    0.780653389406053    0.152119135868036  0.0000
  O1     O1        0.314484189262029    0.177345789295302    0.144217662762961  0.0000
  O2     O2        0.664436341253598    0.501695827176739    0.094971353898274  0.0000
  O1     O1        0.854505192964035    0.431101014355606    0.118716544488624  0.0000
  O1     O1        0.377014239168039    0.418114735944454    0.980289056990635  0.0000
  O1     O1        0.123815247186210    0.542924612930208    0.983799912229251  0.0000
  O3     O3        0.740316578593342    0.213582144529263    0.041744385022025  0.0000
  O3     O3        0.761407681726627    0.738355294075067    0.064350119409575  0.0000
  O1     O1        0.232758708337268    0.283217269933887    0.925513358469601  0.0000
  O1     O1        0.266183122483338    0.674414755373514    0.933525234290405  0.0000
