data_c01044.vasp
_audit_creation_method             Generated by GULP
_audit_author_name                 Salvador R. G. Balestra
_symmetry_space_group_name_H-M     'P 1             '
_symmetry_Int_Tables_number        1

loop_
_symmetry_equiv_pos_site_id
_symmetry_equiv_pos_as_xyz
_cell_length_a                       17.5729
_cell_length_b                        7.8001
_cell_length_c                       10.2796
_cell_angle_alpha                   89.1243
_cell_angle_beta                    89.9041
_cell_angle_gamma                   88.8105

loop_
_atom_site_label
_atom_site_type_symbol
_atom_site_fract_x
_atom_site_fract_y
_atom_site_fract_z
_atom_site_charge
  Ge     Ge        0.052090000000021    0.000000000000000    0.372269999999958  0.0000
  Ge     Ge        0.451378327980516    0.954788534223055    0.416511976349760  0.0000
  Ge     Ge        0.945014502227023    0.959497870252851    0.621297371162605  0.0000
  Ge     Ge        0.558025080869319    0.999178575752632    0.162806393995849  0.0000
  Ge     Ge        0.955134519602158    0.933722345548367    0.111109345622550  0.0000
  Ge     Ge        0.060776211919680    0.003391172997291    0.858366138221662  0.0000
  Ge     Ge        0.148222667426672    0.317826591629661    0.298959468183532  0.0000
  Ge     Ge        0.359080902505443    0.639436138544661    0.300501602873768  0.0000
  Ge     Ge        0.828346611250008    0.255284947350446    0.726564729604579  0.0000
  Ge     Ge        0.669302174654909    0.726316480564301    0.743997039238551  0.0000
  Ge     Ge        0.646764291666137    0.323263243531849    0.732282494742432  0.0000
  Ge     Ge        0.177973464130046    0.722857639162737    0.294994504294082  0.0000
  Ge     Ge        0.329010903470596    0.235874698560483    0.305666244848606  0.0000
  Ge     Ge        0.853111373626227    0.623343971887274    0.055844233379187  0.0000
  Ge     Ge        0.335813651801308    0.228996430250872    0.990965053369365  0.0000
  Ge     Ge        0.181083520560538    0.718425154019476    0.980168673161894  0.0000
  Ge     Ge        0.361681477507615    0.632763280686548    0.985768109432735  0.0000
  Ge     Ge        0.154245701437904    0.311515520772808    0.983464655995107  0.0000
  Ge     Ge        0.674351649157964    0.703503374925341    0.059573420068146  0.0000
  Ge     Ge        0.829820473663836    0.221343511027030    0.040225376892627  0.0000
  Si     Si        0.551365322204084    0.011157151865638    0.668477445356960  0.0000
  Si     Si        0.454184219267851    0.944682758570192    0.915345127476402  0.0000
  Si     Si        0.847282014921502    0.651985573635790    0.743086716689060  0.0000
  Si     Si        0.653267293393587    0.305204577797776    0.041332935512370  0.0000
  O1     O1        0.083288325563287    0.205622420689123    0.389932150304808  0.0000
  O1     O1        0.425978306496901    0.748353330722452    0.385705239355147  0.0000
  O1     O1        0.878591955153746    0.122302628091811    0.626078791054933  0.0000
  O3     O3        0.623407244929574    0.882504421654677    0.651125704742543  0.0000
  O3     O3        0.909778124891023    0.763576529591274    0.669251024013912  0.0000
  O3     O3        0.579429387308572    0.204915523442178    0.651946050344804  0.0000
  O1     O1        0.128605793156849    0.860857634255728    0.392535811295478  0.0000
  O1     O1        0.372867470625465    0.086788404774603    0.404544764456816  0.0000
  O1     O1        0.974242932488293    0.947608100283381    0.460909399684309  0.0000
  O3     O3        0.483157407412691    0.967115595944112    0.575634077771666  0.0000
  O1     O1        0.027787228847950    0.983047084818926    0.209066105782521  0.0000
  O1     O1        0.524141579294713    0.019206053244490    0.317769796833662  0.0000
  O1     O1        0.028038393671859    0.002816529586393    0.700881950846831  0.0000
  O2     O2        0.523431044632063    0.985744383352958    0.818629309721094  0.0000
  O3     O3        0.592592098229680    0.198387139306932    0.121812471879372  0.0000
  O1     O1        0.923315584694494    0.727690549752055    0.134338652029534  0.0000
  O3     O3        0.385259713790189    0.082068055265717    0.897724452645753  0.0000
  O1     O1        0.136741345755552    0.863610306188443    0.878539703563945  0.0000
  O3     O3        0.424748553215599    0.753534043420234    0.894182717721739  0.0000
  O1     O1        0.089118627776634    0.207368117492832    0.892458404306455  0.0000
  O1     O1        0.624895943045642    0.836208470656935    0.161190022651412  0.0000
  O1     O1        0.876637903461316    0.069016680280485    0.129789160081577  0.0000
  O3     O3        0.482332235294870    0.952897406345621    0.064024558217629  0.0000
  O1     O1        0.984529397752404    0.946355130171340    0.951616642933996  0.0000
  O1     O1        0.161733630160320    0.518394789560877    0.355487007948962  0.0000
  O1     O1        0.343625329616678    0.438887484825633    0.364059447078106  0.0000
  O3     O3        0.838348447364051    0.468078906806198    0.676820852881614  0.0000
  O1     O1        0.649537442610878    0.530692281854237    0.677238425175840  0.0000
  O1     O1        0.233227918844704    0.202386752280659    0.299852903241548  0.0000
  O1     O1        0.274216896054682    0.755420163077950    0.297755245842583  0.0000
  O1     O1        0.732726749060822    0.218065934334982    0.717578317476566  0.0000
  O3     O3        0.766918546686918    0.755930157264100    0.739793049588907  0.0000
  O1     O1        0.119793176809112    0.331662011606116    0.138969009706853  0.0000
  O1     O1        0.391166446061758    0.611455209713293    0.144358367763527  0.0000
  O1     O1        0.861215525865608    0.214439288842670    0.881222368521493  0.0000
  O1     O1        0.642111001462180    0.739091716264451    0.903878151541180  0.0000
  O3     O3        0.872303012295093    0.611504168791960    0.890060572631625  0.0000
  O3     O3        0.624026008657842    0.341285433573811    0.895523389613804  0.0000
  O1     O1        0.146128359728891    0.737648135910127    0.136090425113817  0.0000
  O1     O1        0.365203983590188    0.218625426822500    0.150193820225437  0.0000
  O3     O3        0.665950446206619    0.488486574712434    0.105573113848165  0.0000
  O1     O1        0.847721031628404    0.416649587258785    0.109146678773187  0.0000
  O1     O1        0.351870786836676    0.431706441975454    0.926400728763887  0.0000
  O1     O1        0.168051127282691    0.514332599282185    0.923291883948668  0.0000
  O3     O3        0.732116221205094    0.195115201165364    0.036378225471889  0.0000
  O1     O1        0.769681239946180    0.740222482327022    0.071125262832771  0.0000
  O1     O1        0.239581182387769    0.197131966538580    0.985727900772494  0.0000
  O1     O1        0.277182287081474    0.748043320030238    0.986597632197892  0.0000
