data_c01068.vasp
_audit_creation_method             Generated by GULP
_audit_author_name                 Salvador R. G. Balestra
_symmetry_space_group_name_H-M     'P 1             '
_symmetry_Int_Tables_number        1

loop_
_symmetry_equiv_pos_site_id
_symmetry_equiv_pos_as_xyz
_cell_length_a                       17.5232
_cell_length_b                        7.8360
_cell_length_c                       10.3237
_cell_angle_alpha                   90.1989
_cell_angle_beta                    91.0699
_cell_angle_gamma                   91.5921

loop_
_atom_site_label
_atom_site_type_symbol
_atom_site_fract_x
_atom_site_fract_y
_atom_site_fract_z
_atom_site_charge
  Ge     Ge        0.052090000000021    0.000000000000000    0.372269999999958  0.0000
  Ge     Ge        0.454658558308546    0.049030887160121    0.415357246801170  0.0000
  Ge     Ge        0.948954606342520    0.058352624057886    0.624541833564765  0.0000
  Ge     Ge        0.562978402492630    0.009406916296628    0.170896233276691  0.0000
  Ge     Ge        0.452278104655301    0.060080629849081    0.918490113052515  0.0000
  Ge     Ge        0.057214467587035    0.004229999639438    0.876786826811562  0.0000
  Ge     Ge        0.178692335535773    0.282134363196574    0.300379305995568  0.0000
  Ge     Ge        0.330736145313669    0.764386837528581    0.303279835461515  0.0000
  Ge     Ge        0.852151244097951    0.366880056223186    0.741438308848715  0.0000
  Ge     Ge        0.647329936982631    0.693465585703454    0.742512475285710  0.0000
  Ge     Ge        0.828202549080370    0.768863964827541    0.734683255702675  0.0000
  Ge     Ge        0.669620323358516    0.288099377308920    0.748841997596770  0.0000
  Ge     Ge        0.148035738573146    0.683328016939005    0.303968115560366  0.0000
  Ge     Ge        0.360023275206346    0.362132414825656    0.299540612669761  0.0000
  Ge     Ge        0.676759888175972    0.307785045148967    0.061308791722336  0.0000
  Ge     Ge        0.836303751737574    0.778342502600485    0.048517238352754  0.0000
  Ge     Ge        0.352726342119166    0.371218063989702    0.983411727597033  0.0000
  Ge     Ge        0.146666425739453    0.685440771792187    0.992511857323896  0.0000
  Ge     Ge        0.329005350774676    0.770584038949022    0.990064498039151  0.0000
  Ge     Ge        0.859706833185230    0.379201533939785    0.056329109467401  0.0000
  Si     Si        0.552174548973223    0.001979479327272    0.671239170230602  0.0000
  Si     Si        0.954465783436619    0.068277498886807    0.118266983680269  0.0000
  Si     Si        0.175136704642761    0.290153681957130    0.991907828883229  0.0000
  Si     Si        0.656978971661071    0.704699907121746    0.050034770535156  0.0000
  O1     O1        0.129217723139251    0.138932061331030    0.391937091881893  0.0000
  O1     O1        0.376677208183150    0.914833445677512    0.398271113054102  0.0000
  O1     O1        0.917462559125317    0.259208615712642    0.654474245634466  0.0000
  O3     O3        0.581139492469071    0.809964622303982    0.656083096680099  0.0000
  O1     O1        0.875185207448235    0.912910997549178    0.639990795736061  0.0000
  O3     O3        0.621215466697769    0.139391775338837    0.652026239383970  0.0000
  O1     O1        0.084326951460164    0.797165072422396    0.392434900249091  0.0000
  O1     O1        0.429678905378432    0.254203951793589    0.380821394597395  0.0000
  O1     O1        0.977510943564253    0.047282454250855    0.465980804640529  0.0000
  O3     O3        0.481675736421225    0.038786315750734    0.578169431926883  0.0000
  O3     O3        0.024625433493412    0.024611582947904    0.209858553212949  0.0000
  O1     O1        0.531128673057433    0.990073832925243    0.326466852490315  0.0000
  O1     O1        0.027916307170771    0.014792572990827    0.717980376604650  0.0000
  O3     O3        0.527454049939397    0.023136353327442    0.820558854337318  0.0000
  O1     O1        0.631032198753517    0.171047117224535    0.164024407148842  0.0000
  O3     O3        0.883481131321076    0.934661505248966    0.138276574130558  0.0000
  O1     O1        0.414519255582541    0.257807229437863    0.893635363823709  0.0000
  O1     O1        0.083445945869913    0.797078595350543    0.900172589910789  0.0000
  O1     O1        0.378034607765328    0.914073956756798    0.897771957144202  0.0000
  O3     O3        0.132349002282900    0.147849381437702    0.904088412408344  0.0000
  O3     O3        0.598521769181373    0.812649381616858    0.130608668603254  0.0000
  O3     O3        0.924888174198339    0.258387913109928    0.141840048305444  0.0000
  O1     O1        0.485006037715368    0.054142344517975    0.076521096197180  0.0000
  O3     O3        0.979589425542468    0.054059895476402    0.968795305303174  0.0000
  O1     O1        0.161502913663041    0.483201924991739    0.361536687828435  0.0000
  O1     O1        0.347719697650407    0.562589792657595    0.361447502931990  0.0000
  O1     O1        0.838603745620475    0.564689677009434    0.676503036472048  0.0000
  O1     O1        0.652723153059432    0.489249489742283    0.687034663028970  0.0000
  O1     O1        0.274495686198549    0.247634657723115    0.308137545918544  0.0000
  O1     O1        0.234278638446569    0.794769295448098    0.301686077565129  0.0000
  O1     O1        0.765872186212026    0.255276402006584    0.745099451920585  0.0000
  O1     O1        0.732358079624903    0.805540506833342    0.733382870130667  0.0000
  O3     O3        0.147405542430290    0.278615344195227    0.139396038663608  0.0000
  O1     O1        0.363280778339801    0.782341847799302    0.147464034234209  0.0000
  O1     O1        0.885459442552000    0.396437191586158    0.897295069505449  0.0000
  O3     O3        0.624278460540481    0.677054351044482    0.904722013277713  0.0000
  O1     O1        0.864579848175975    0.785216185877151    0.890300091265805  0.0000
  O1     O1        0.640310153557500    0.276658777656239    0.907050255349775  0.0000
  O1     O1        0.113589706012889    0.673944614433212    0.146815593915922  0.0000
  O1     O1        0.385560670092198    0.385501591944101    0.141223193535043  0.0000
  O3     O3        0.667329341728958    0.518602135182202    0.111488821502234  0.0000
  O1     O1        0.855888263493033    0.582703946987844    0.115801752494539  0.0000
  O1     O1        0.343434243391118    0.571112296552921    0.924268950251953  0.0000
  O3     O3        0.158646293144595    0.478962424751259    0.936644761911086  0.0000
  O1     O1        0.772683731865489    0.273335711465898    0.061064263956252  0.0000
  O3     O3        0.738504060551987    0.805839285627370    0.047305075720090  0.0000
  O3     O3        0.265296758551151    0.260776603645198    0.989575176822389  0.0000
  O1     O1        0.232490947175592    0.797388275987508    0.991067431044857  0.0000
