data_c01007.vasp
_audit_creation_method             Generated by GULP
_audit_author_name                 Salvador R. G. Balestra
_symmetry_space_group_name_H-M     'P 1             '
_symmetry_Int_Tables_number        1

loop_
_symmetry_equiv_pos_site_id
_symmetry_equiv_pos_as_xyz
_cell_length_a                       17.4889
_cell_length_b                        7.8162
_cell_length_c                       10.3800
_cell_angle_alpha                   89.7008
_cell_angle_beta                    90.3716
_cell_angle_gamma                   91.7717

loop_
_atom_site_label
_atom_site_type_symbol
_atom_site_fract_x
_atom_site_fract_y
_atom_site_fract_z
_atom_site_charge
  Ge     Ge        0.052090000000021    0.000000000000000    0.372269999999958  0.0000
  Ge     Ge        0.452181610493570    0.058048684286636    0.391495836116761  0.0000
  Ge     Ge        0.950203359704237    0.056114348789186    0.627392709829813  0.0000
  Ge     Ge        0.562608074138106    0.994337753463721    0.145012361116507  0.0000
  Ge     Ge        0.946235670931817    0.050790406015556    0.124322059506582  0.0000
  Ge     Ge        0.056205633221177    0.999781533308392    0.881332832048986  0.0000
  Ge     Ge        0.177753119074898    0.287180213012537    0.265882550808271  0.0000
  Ge     Ge        0.329355377214333    0.774001537951883    0.276811680735314  0.0000
  Ge     Ge        0.851104179220032    0.364518609442363    0.702064207257142  0.0000
  Ge     Ge        0.643957367627187    0.690927065686622    0.718416508470882  0.0000
  Ge     Ge        0.825992037596887    0.771700666260710    0.710281857085617  0.0000
  Ge     Ge        0.668834971848363    0.286458426963625    0.714779349566703  0.0000
  Ge     Ge        0.147459120681842    0.688467552201922    0.261407204261671  0.0000
  Ge     Ge        0.360021397420249    0.372108810381456    0.276314856311130  0.0000
  Ge     Ge        0.679960438504583    0.282220557165124    0.027325402259635  0.0000
  Ge     Ge        0.363427944448186    0.372355729553185    0.963627314710803  0.0000
  Ge     Ge        0.157602995907352    0.690292977260412    0.947871047262380  0.0000
  Ge     Ge        0.339274232894966    0.776341481497255    0.965148301935730  0.0000
  Ge     Ge        0.181523951620573    0.288392862831496    0.953612020595262  0.0000
  Ge     Ge        0.653125873225601    0.679976217534132    0.030756366914056  0.0000
  Si     Si        0.549753655257743    0.002138921926350    0.643995306298166  0.0000
  Si     Si        0.459152114093564    0.065648056564622    0.894795189902650  0.0000
  Si     Si        0.832830564626924    0.756643066440474    0.013439504188808  0.0000
  Si     Si        0.858655484062365    0.363048076848688    0.005464467611606  0.0000
  O1     O1        0.130127790383072    0.134985935392157    0.355107378517208  0.0000
  O1     O1        0.373548000527231    0.925726556986393    0.370827358547649  0.0000
  O1     O1        0.914705211846631    0.257610152345552    0.609712372089270  0.0000
  O3     O3        0.578950644122663    0.810561431703735    0.631935233851492  0.0000
  O1     O1        0.874703075418174    0.910449477107889    0.612007755076517  0.0000
  O3     O3        0.618658925669083    0.139688618471211    0.620334574048742  0.0000
  O1     O1        0.077493716786849    0.794455938804698    0.339986888605991  0.0000
  O1     O1        0.426731594924671    0.264869168425317    0.364344424017528  0.0000
  O1     O1        0.024951623940506    0.013608593745132    0.531439854201178  0.0000
  O3     O3        0.479521204678740    0.035524913831201    0.551352524170598  0.0000
  O1     O1        0.973497463087816    0.056081275240780    0.283374293893043  0.0000
  O1     O1        0.528200607419227    0.004761286663165    0.298102023641341  0.0000
  O1     O1        0.980328361350836    0.037756414570632    0.785680342450792  0.0000
  O2     O2        0.525721980001899    0.030093963269332    0.793805315302166  0.0000
  O1     O1        0.642173228302401    0.125773528002949    0.124184269514471  0.0000
  O3     O3        0.876219966279385    0.890401438965071    0.105888553959186  0.0000
  O3     O3        0.428370610005285    0.255814353224237    0.877182128539516  0.0000
  O1     O1        0.094124760322995    0.801756055149784    0.857201886638037  0.0000
  O3     O3        0.390312337660117    0.926564775706610    0.876122972416603  0.0000
  O1     O1        0.130478803512616    0.147774832594378    0.859956891935310  0.0000
  O1     O1        0.590680416051388    0.788713670258330    0.122270886739184  0.0000
  O3     O3        0.917828038433986    0.257382380248579    0.089398055290196  0.0000
  O3     O3        0.490841570582548    0.052237106155494    0.040296388362554  0.0000
  O1     O1        0.026173539030858    0.005975039893828    0.039658717667452  0.0000
  O1     O1        0.159819896826245    0.488116496454523    0.324653178063846  0.0000
  O1     O1        0.345211316363246    0.571620682861222    0.336705304923462  0.0000
  O1     O1        0.839572852012893    0.568686140970476    0.651204578117160  0.0000
  O1     O1        0.652135889389525    0.490279728758153    0.657041689281614  0.0000
  O1     O1        0.274449627197978    0.256893242649427    0.272808506918882  0.0000
  O1     O1        0.232967699594051    0.804687559769767    0.271056657577569  0.0000
  O1     O1        0.764851030751538    0.252631105921493    0.701795357087960  0.0000
  O1     O1        0.730077787546314    0.804156947767775    0.711942211291450  0.0000
  O1     O1        0.147102589425712    0.274508347614332    0.108527909441348  0.0000
  O1     O1        0.367179861019967    0.787783187785440    0.124043208205877  0.0000
  O3     O3        0.886636617671160    0.370291043821721    0.859163963879652  0.0000
  O1     O1        0.617422867683068    0.669845933905706    0.876362094357765  0.0000
  O3     O3        0.860968778152901    0.787354235258801    0.867797184272752  0.0000
  O1     O1        0.642976239323834    0.272265294386651    0.873951452840553  0.0000
  O1     O1        0.123617109367934    0.665439183898643    0.102235757709082  0.0000
  O1     O1        0.392425684014404    0.393805928138220    0.121042302964676  0.0000
  O1     O1        0.660405352306403    0.478136117758551    0.091812862692955  0.0000
  O2     O2        0.849205183999962    0.558780738239978    0.054585619749053  0.0000
  O1     O1        0.355028900331048    0.574864139155634    0.903819877264443  0.0000
  O1     O1        0.171760962796601    0.491102711591863    0.889024698445504  0.0000
  O3     O3        0.777591931228161    0.261787317688216    0.014213985233671  0.0000
  O3     O3        0.742526517495576    0.782777572171945    0.022192857230467  0.0000
  O1     O1        0.278080799354902    0.256691950597110    0.959930197487623  0.0000
  O1     O1        0.243019089169047    0.807805750682062    0.956249712904218  0.0000
