data_c01097.vasp
_audit_creation_method             Generated by GULP
_audit_author_name                 Salvador R. G. Balestra
_symmetry_space_group_name_H-M     'P 1             '
_symmetry_Int_Tables_number        1

loop_
_symmetry_equiv_pos_site_id
_symmetry_equiv_pos_as_xyz
_cell_length_a                       17.7659
_cell_length_b                        7.8441
_cell_length_c                       10.3484
_cell_angle_alpha                   90.5999
_cell_angle_beta                    90.9846
_cell_angle_gamma                   90.2539

loop_
_atom_site_label
_atom_site_type_symbol
_atom_site_fract_x
_atom_site_fract_y
_atom_site_fract_z
_atom_site_charge
  Ge     Ge        0.052090000000021    0.000000000000000    0.372269999999958  0.0000
  Ge     Ge        0.448299248067434    0.041733134922969    0.384141605260406  0.0000
  Ge     Ge        0.943037619994835    0.989021886733613    0.621027456675438  0.0000
  Ge     Ge        0.558143029454277    0.012143202981119    0.137743867774348  0.0000
  Ge     Ge        0.447877247765596    0.015143704266636    0.886702437275969  0.0000
  Ge     Ge        0.043104423845082    0.989023448279612    0.886075826503974  0.0000
  Ge     Ge        0.168055320977330    0.294446077647888    0.272643993801306  0.0000
  Ge     Ge        0.326591465749014    0.754349008905378    0.265047041585587  0.0000
  Ge     Ge        0.825611294426413    0.272763405865367    0.700200264529467  0.0000
  Ge     Ge        0.660526291529321    0.729839046236022    0.714347384944052  0.0000
  Ge     Ge        0.841370324299529    0.681369346957928    0.706289456244993  0.0000
  Ge     Ge        0.646268467427098    0.320057790514529    0.709319959601308  0.0000
  Ge     Ge        0.349101045615579    0.350074604059293    0.280311943076699  0.0000
  Ge     Ge        0.850988142155015    0.677170398447133    0.019984874772515  0.0000
  Ge     Ge        0.347688473789953    0.331037612580424    0.964086612249097  0.0000
  Ge     Ge        0.146108479372949    0.675153087859683    0.952050333238387  0.0000
  Ge     Ge        0.324332451953822    0.736794908570290    0.949365185466045  0.0000
  Ge     Ge        0.167835551874603    0.268684967245027    0.959720761042193  0.0000
  Ge     Ge        0.668876346403005    0.719224770912193    0.025514042865346  0.0000
  Ge     Ge        0.830076174856255    0.271026561832798    0.014124028254453  0.0000
  Si     Si        0.546781874151038    0.010911464208040    0.636005309281222  0.0000
  Si     Si        0.942162837453340    0.992138684094060    0.132519204814825  0.0000
  Si     Si        0.150714525702591    0.693013445711965    0.261499079659263  0.0000
  Si     Si        0.652441946752623    0.319203641104049    0.016151073479325  0.0000
  O1     O1        0.114854758502024    0.164752319902228    0.367376558961610  0.0000
  O1     O1        0.372911399503712    0.911137426769704    0.348361739256183  0.0000
  O1     O1        0.876480498810991    0.145640472570188    0.599505793457235  0.0000
  O3     O3        0.609597073349075    0.866122476277111    0.616246408982702  0.0000
  O1     O1        0.899179807426596    0.794440619153236    0.607923680980692  0.0000
  O3     O3        0.582692954225267    0.198300229357359    0.619872463251146  0.0000
  O3     O3        0.091760221029235    0.804555877008689    0.340298847013990  0.0000
  O1     O1        0.414637215113426    0.245133890885950    0.372682694184260  0.0000
  O1     O1        0.020540800297137    0.000573649724045    0.528381638380142  0.0000
  O3     O3        0.475689574913928    0.992893042626896    0.541458164540221  0.0000
  O3     O3        0.971066395483340    0.022393162518639    0.278491768807232  0.0000
  O1     O1        0.526632509309034    0.013253978553067    0.293269444388793  0.0000
  O1     O1        0.971551039351255    0.019655402163925    0.780470562919175  0.0000
  O3     O3        0.521118880935103    0.988448477478418    0.783587425114240  0.0000
  O3     O3        0.596677075238683    0.208559966664303    0.100805725520480  0.0000
  O3     O3        0.914978849006350    0.797860674895135    0.109072019846433  0.0000
  O1     O1        0.411026518541006    0.216252660166981    0.876713475266426  0.0000
  O1     O1        0.077266952090864    0.784546520267457    0.872309889883222  0.0000
  O1     O1        0.376259373056976    0.870208128322619    0.857337085942646  0.0000
  O1     O1        0.117703525423251    0.126996992301795    0.866695533270857  0.0000
  O1     O1        0.622980661724277    0.851542233314677    0.128740841933069  0.0000
  O3     O3        0.871926375465157    0.116223203250095    0.105974032260481  0.0000
  O1     O1        0.481141769561838    0.975444381108813    0.040358912049039  0.0000
  O3     O3        0.011495302047633    0.033767594136855    0.040775459898291  0.0000
  O3     O3        0.159067120647553    0.506495255052532    0.322032303950548  0.0000
  O1     O1        0.343795781176993    0.557961183141715    0.331292811349202  0.0000
  O1     O1        0.831158216343513    0.479281345816097    0.646860907423588  0.0000
  O1     O1        0.648935831192688    0.524419281510345    0.655123255609332  0.0000
  O1     O1        0.262284239441368    0.251751376766595    0.286977232406885  0.0000
  O3     O3        0.230410367858487    0.791969717609372    0.265196477599988  0.0000
  O1     O1        0.731667558915891    0.220672919562790    0.699052062614871  0.0000
  O1     O1        0.754599346264114    0.778815661465864    0.712986023427400  0.0000
  O1     O1        0.137489963118330    0.263986552858123    0.116883371864129  0.0000
  O1     O1        0.354703847798233    0.751218388548744    0.107959126616730  0.0000
  O1     O1        0.859179847154007    0.263411799115367    0.857455955160078  0.0000
  O1     O1        0.632105622095409    0.741131882969133    0.872302413145319  0.0000
  O1     O1        0.878350316530980    0.676371515508102    0.861414984467029  0.0000
  O3     O3        0.619978093987432    0.329254629528361    0.870214735331877  0.0000
  O3     O3        0.122825608005381    0.670153204651352    0.114193881634177  0.0000
  O1     O1        0.378324733009835    0.342958798870887    0.122430869489472  0.0000
  O3     O3        0.659940576643238    0.508711577795912    0.074598394947221  0.0000
  O1     O1        0.849565785202275    0.471458840048218    0.075228089962959  0.0000
  O1     O1        0.336073393025305    0.528231027253610    0.899423049216529  0.0000
  O1     O1        0.154092512086146    0.470632687128218    0.897958355014029  0.0000
  O3     O3        0.734158054150492    0.231696892580431    0.013155052555771  0.0000
  O1     O1        0.763060642545143    0.765343497317218    0.026629257558600  0.0000
  O1     O1        0.262190330400536    0.225329801444514    0.962227567003956  0.0000
  O1     O1        0.230215343404769    0.782287453675624    0.938285481573339  0.0000
