data_c01022.vasp
_audit_creation_method             Generated by GULP
_audit_author_name                 Salvador R. G. Balestra
_symmetry_space_group_name_H-M     'P 1             '
_symmetry_Int_Tables_number        1

loop_
_symmetry_equiv_pos_site_id
_symmetry_equiv_pos_as_xyz
_cell_length_a                       17.5669
_cell_length_b                        7.8037
_cell_length_c                       10.2672
_cell_angle_alpha                   90.7210
_cell_angle_beta                    89.9386
_cell_angle_gamma                   91.2225

loop_
_atom_site_label
_atom_site_type_symbol
_atom_site_fract_x
_atom_site_fract_y
_atom_site_fract_z
_atom_site_charge
  Ge     Ge        0.052090000000021    0.000000000000000    0.372269999999958  0.0000
  Ge     Ge        0.442800512023540    0.057363377555876    0.386520832388104  0.0000
  Ge     Ge        0.947988131061340    0.029949773408304    0.626751863854972  0.0000
  Ge     Ge        0.548856927315513    0.988398306040022    0.132021082555263  0.0000
  Ge     Ge        0.941663341346721    0.050275736920427    0.133160961824582  0.0000
  Ge     Ge        0.051311843830098    0.984778529547070    0.887334882432825  0.0000
  Ge     Ge        0.168719318250909    0.296586880340056    0.266474780126603  0.0000
  Ge     Ge        0.320827547347613    0.774464162971330    0.271781065669451  0.0000
  Ge     Ge        0.846307827746898    0.346671070408603    0.692777165676485  0.0000
  Ge     Ge        0.638964898708994    0.674807626954013    0.699784536525926  0.0000
  Ge     Ge        0.820860819183383    0.751295250631070    0.696992620797575  0.0000
  Ge     Ge        0.664337310970998    0.271599235337086    0.701189329993817  0.0000
  Ge     Ge        0.352088954910244    0.372294837158264    0.272700102284520  0.0000
  Ge     Ge        0.670623112290479    0.270989434574110    0.018475984175076  0.0000
  Ge     Ge        0.820014883994771    0.764194318065336    0.013653394709292  0.0000
  Ge     Ge        0.353009615204686    0.359315835322330    0.956610330848008  0.0000
  Ge     Ge        0.329725684732136    0.763180331446523    0.952453222775592  0.0000
  Ge     Ge        0.170411928518004    0.284702000687790    0.954882136162922  0.0000
  Ge     Ge        0.640264715753100    0.673010955074711    0.015978022982842  0.0000
  Ge     Ge        0.850278301469826    0.359656340295015    0.010714296827051  0.0000
  Si     Si        0.543689224112100    0.988136417589998    0.633689859575680  0.0000
  Si     Si        0.447573195121937    0.051031496279969    0.881668789912967  0.0000
  Si     Si        0.146008514464721    0.691906367626825    0.254209015231398  0.0000
  Si     Si        0.154639659889389    0.680435767930543    0.945265245613343  0.0000
  O1     O1        0.122184297033593    0.154630619989387    0.365742648243893  0.0000
  O1     O1        0.362054587583515    0.933974624357837    0.362454093083371  0.0000
  O1     O1        0.912599212227058    0.232102363973132    0.607802610270028  0.0000
  O3     O3        0.573818596537254    0.796785708815940    0.615769799497822  0.0000
  O1     O1        0.872554680423998    0.888728917342995    0.602168624692516  0.0000
  O3     O3        0.612617352054920    0.122629958317921    0.609363847010931  0.0000
  O3     O3        0.078063223583681    0.799259923287405    0.313992299830377  0.0000
  O1     O1        0.417718479576559    0.265525888472868    0.362829890064839  0.0000
  O1     O1        0.025384556731762    0.985725529356925    0.533346260914637  0.0000
  O3     O3        0.472200453349683    0.026778929145448    0.545178967240505  0.0000
  O1     O1        0.970273486260198    0.053293404806514    0.293041523871368  0.0000
  O1     O1        0.516548513010105    0.997389684560754    0.288893573854405  0.0000
  O1     O1        0.975925476732597    0.008307182965079    0.787397703912352  0.0000
  O2     O2        0.517584992810090    0.012423847622955    0.785613636417067  0.0000
  O1     O1        0.626262504747977    0.123096947832293    0.114928415789766  0.0000
  O1     O1        0.864516811707233    0.915012871489657    0.110103106198134  0.0000
  O3     O3        0.414351347323263    0.238773427167694    0.861970200817869  0.0000
  O3     O3        0.091271580710026    0.782400769048568    0.870194076346819  0.0000
  O3     O3        0.380317755716643    0.909670791889100    0.861519823999240  0.0000
  O1     O1        0.119298844884036    0.142942696233787    0.860148625315484  0.0000
  O1     O1        0.572581550697344    0.779839488734891    0.102255662583811  0.0000
  O1     O1        0.919015478750557    0.256592973239018    0.094322043540212  0.0000
  O3     O3        0.475761443898509    0.046774913803422    0.030568670071558  0.0000
  O1     O1        0.019198325087967    0.987445632363302    0.044993315586884  0.0000
  O3     O3        0.151451467656884    0.506335220938743    0.318215719953635  0.0000
  O1     O1        0.341792447270201    0.576611522322773    0.332002775181541  0.0000
  O1     O1        0.833291428623699    0.547325268992764    0.634195346483366  0.0000
  O1     O1        0.648421212902666    0.472055049886350    0.637417942428214  0.0000
  O1     O1        0.264829407286352    0.267077498747718    0.272672962632247  0.0000
  O3     O3        0.223355861339488    0.802512848527539    0.276611015911508  0.0000
  O1     O1        0.760168609118127    0.234878600216527    0.692349361825218  0.0000
  O1     O1        0.724668577704020    0.785985584095542    0.696865927945269  0.0000
  O1     O1        0.135975178218440    0.260564756945542    0.110903139130963  0.0000
  O1     O1        0.353504681893381    0.784923829366083    0.113916570561553  0.0000
  O1     O1        0.877197032796503    0.373371976423967    0.850662525489952  0.0000
  O1     O1        0.610201636826926    0.648291609119926    0.857655428264154  0.0000
  O1     O1        0.852195217962379    0.772772676731779    0.855754751964638  0.0000
  O1     O1        0.637046979877334    0.260884310656242    0.861445724293686  0.0000
  O2     O2        0.136835692557040    0.653736895391743    0.099455514611470  0.0000
  O1     O1        0.383839542077858    0.381958264261179    0.114534079484043  0.0000
  O1     O1        0.654782810109220    0.474886740436229    0.079109869444973  0.0000
  O1     O1        0.836526545784625    0.561496271761728    0.071814295650745  0.0000
  O1     O1        0.348059347755067    0.560401223878633    0.894471683206187  0.0000
  O3     O3        0.161429689362790    0.489259363617903    0.890002834501320  0.0000
  O1     O1        0.766712388015744    0.239667997185978    0.017216961681006  0.0000
  O1     O1        0.723553646544262    0.793706357824410    0.015448020507257  0.0000
  O1     O1        0.266382016814002    0.251528739418884    0.958430506532397  0.0000
  O3     O3        0.232819393426086    0.791419200837325    0.935396913836657  0.0000
