data_c01098.vasp
_audit_creation_method             Generated by GULP
_audit_author_name                 Salvador R. G. Balestra
_symmetry_space_group_name_H-M     'P 1             '
_symmetry_Int_Tables_number        1

loop_
_symmetry_equiv_pos_site_id
_symmetry_equiv_pos_as_xyz
_cell_length_a                       17.7729
_cell_length_b                        7.8517
_cell_length_c                       10.2978
_cell_angle_alpha                   90.0312
_cell_angle_beta                    90.9696
_cell_angle_gamma                   89.5554

loop_
_atom_site_label
_atom_site_type_symbol
_atom_site_fract_x
_atom_site_fract_y
_atom_site_fract_z
_atom_site_charge
  Ge     Ge        0.052090000000021    0.000000000000000    0.372269999999958  0.0000
  Ge     Ge        0.441244255584615    0.029160959876437    0.384033586860892  0.0000
  Ge     Ge        0.940093567348788    0.001026559444463    0.617736930816650  0.0000
  Ge     Ge        0.554091605513671    0.032129369178540    0.142164336440630  0.0000
  Ge     Ge        0.447480830066841    0.026716481720080    0.885268829408957  0.0000
  Ge     Ge        0.041778389881734    0.008324144811415    0.881457088975363  0.0000
  Ge     Ge        0.166466313268766    0.293424642721178    0.265183914736729  0.0000
  Ge     Ge        0.326737477849142    0.737422034815972    0.269537002627914  0.0000
  Ge     Ge        0.822843668781337    0.286591930754055    0.700159635216437  0.0000
  Ge     Ge        0.659156134955754    0.747764321457050    0.708279296143260  0.0000
  Ge     Ge        0.839675703720889    0.692752671627556    0.698027558898936  0.0000
  Ge     Ge        0.642440179967299    0.340301076099194    0.709835196226944  0.0000
  Ge     Ge        0.647287511199710    0.345531246018770    0.025161630972195  0.0000
  Ge     Ge        0.851477490872977    0.692838793971134    0.012750766429102  0.0000
  Ge     Ge        0.343994639661628    0.339984514167140    0.956956438614683  0.0000
  Ge     Ge        0.146786033945611    0.694396093184256    0.955109900680406  0.0000
  Ge     Ge        0.325334377688147    0.750330722519505    0.955037565969082  0.0000
  Ge     Ge        0.165426547233029    0.285655387763244    0.950049836854920  0.0000
  Ge     Ge        0.670332459689707    0.750591994190675    0.022936723418985  0.0000
  Ge     Ge        0.828648930178456    0.286858474404762    0.015475361807271  0.0000
  Si     Si        0.545075230171186    0.032719311100381    0.633223341454023  0.0000
  Si     Si        0.942713790790361    0.004355087741924    0.129137552174832  0.0000
  Si     Si        0.149771832638197    0.691237248333079    0.265643938936762  0.0000
  Si     Si        0.343566400411714    0.337573694886976    0.267502860700771  0.0000
  O1     O1        0.117448427426589    0.157520913952388    0.360353734386029  0.0000
  O1     O1        0.375511360859341    0.871912148054323    0.369017704181389  0.0000
  O1     O1        0.872002017102542    0.156566287728008    0.598202990577551  0.0000
  O3     O3        0.607122477305142    0.885552839238438    0.610173258755193  0.0000
  O1     O1        0.898073335007443    0.806555488422203    0.600467076741302  0.0000
  O3     O3        0.581693619619664    0.217518633938378    0.616268237267614  0.0000
  O3     O3        0.092433336780280    0.802303508397144    0.349170169320667  0.0000
  O3     O3        0.401985680731023    0.226716233908385    0.352009986783051  0.0000
  O1     O1        0.018930035548876    0.015209854014302    0.527580551256356  0.0000
  O3     O3        0.470917099085816    0.018721018292990    0.545276525230336  0.0000
  O3     O3        0.971739687822115    0.022072362885825    0.276825185790639  0.0000
  O1     O1        0.520814047690248    0.002787607153029    0.295842526304910  0.0000
  O1     O1        0.967810190643047    0.029119463286777    0.778447008882134  0.0000
  O3     O3        0.521654087455804    0.006410343837812    0.783026690405621  0.0000
  O1     O1        0.585010402664425    0.236322478016350    0.117608548513129  0.0000
  O3     O3        0.916464598523776    0.812120270809241    0.098696993719510  0.0000
  O1     O1        0.410159954999448    0.228992571515073    0.873822623911840  0.0000
  O1     O1        0.080084819408447    0.806879599820225    0.870768154972641  0.0000
  O1     O1        0.376390671272605    0.881901030134423    0.859703928312934  0.0000
  O1     O1        0.112309238775991    0.153493349925241    0.855671869283239  0.0000
  O1     O1        0.629146536929188    0.896849141928550    0.121119820921552  0.0000
  O3     O3        0.873670923100917    0.134564953434956    0.109012528272062  0.0000
  O1     O1        0.480557780823977    0.985166154598830    0.039455121476397  0.0000
  O3     O3        0.012028772374460    0.050307944601722    0.038279958710099  0.0000
  O3     O3        0.154473901697674    0.500560797713979    0.320933401215104  0.0000
  O3     O3        0.339427553798401    0.528805426051872    0.321710407588521  0.0000
  O1     O1        0.829205532604659    0.490941383292148    0.640564015642870  0.0000
  O1     O1        0.647047439628014    0.543069577976792    0.650522992705767  0.0000
  O3     O3        0.262106155193097    0.249142391446532    0.271394489596009  0.0000
  O3     O3        0.231140417114484    0.780498266345175    0.271698496964812  0.0000
  O1     O1        0.728843031389222    0.240085870471073    0.706985070887243  0.0000
  O1     O1        0.753258570219626    0.793992002976356    0.703349836707058  0.0000
  O1     O1        0.136151566780350    0.271839830715441    0.108460698767266  0.0000
  O1     O1        0.356655276318820    0.763876325391394    0.114288715359621  0.0000
  O1     O1        0.857560183719784    0.278721203580723    0.857555605774582  0.0000
  O1     O1        0.632684343808307    0.756689491078937    0.867945969167934  0.0000
  O1     O1        0.877712113961046    0.684363221501494    0.853154810436329  0.0000
  O1     O1        0.612987921917627    0.350163677383616    0.867673728612552  0.0000
  O3     O3        0.121344929434738    0.683487703128035    0.116967524763370  0.0000
  O3     O3        0.371315645005342    0.343547421517196    0.119841866024579  0.0000
  O1     O1        0.657299203064931    0.548275122740226    0.083071424195082  0.0000
  O1     O1        0.846810808319918    0.489499484279864    0.072920805819871  0.0000
  O1     O1        0.335588561914371    0.543215415610815    0.901577562853956  0.0000
  O1     O1        0.154806099719656    0.492634022983472    0.896158057369619  0.0000
  O1     O1        0.734231142018894    0.247737569904870    0.022540461565244  0.0000
  O1     O1        0.764854192990322    0.789600207660123    0.016977842684950  0.0000
  O1     O1        0.259413225856346    0.235980441776300    0.944659244783907  0.0000
  O1     O1        0.231213014234398    0.799249750373414    0.947817089687687  0.0000
