data_c01071.vasp
_audit_creation_method             Generated by GULP
_audit_author_name                 Salvador R. G. Balestra
_symmetry_space_group_name_H-M     'P 1             '
_symmetry_Int_Tables_number        1

loop_
_symmetry_equiv_pos_site_id
_symmetry_equiv_pos_as_xyz
_cell_length_a                       17.5200
_cell_length_b                        7.8089
_cell_length_c                       10.2973
_cell_angle_alpha                   90.1061
_cell_angle_beta                    90.7831
_cell_angle_gamma                   88.7966

loop_
_atom_site_label
_atom_site_type_symbol
_atom_site_fract_x
_atom_site_fract_y
_atom_site_fract_z
_atom_site_charge
  Ge     Ge        0.052090000000021    0.000000000000000    0.372269999999958  0.0000
  Ge     Ge        0.452307394677036    0.940600212720147    0.391264146549583  0.0000
  Ge     Ge        0.948604223391811    0.946664225055938    0.624854538658715  0.0000
  Ge     Ge        0.555581912693369    0.999343331306253    0.135296869380486  0.0000
  Ge     Ge        0.447813274906482    0.942749162049380    0.881258152332668  0.0000
  Ge     Ge        0.062603672135611    0.001151720495139    0.869998328827700  0.0000
  Ge     Ge        0.150371088125063    0.312551051875565    0.297294666728806  0.0000
  Ge     Ge        0.355534459332937    0.628899928403137    0.306859115807095  0.0000
  Ge     Ge        0.826632506974296    0.230394437520395    0.735773935601328  0.0000
  Ge     Ge        0.672024848479486    0.707753814054255    0.747170118709322  0.0000
  Ge     Ge        0.854610043268748    0.631204739682270    0.738179689324056  0.0000
  Ge     Ge        0.644269295648561    0.304978036858035    0.752705019939845  0.0000
  Ge     Ge        0.176528646963342    0.719165499544732    0.298971939931846  0.0000
  Ge     Ge        0.329436905186942    0.220977532185014    0.303240572243047  0.0000
  Ge     Ge        0.658066409776898    0.307224006906359    0.068549136932363  0.0000
  Ge     Ge        0.860225900476139    0.629664327589638    0.054964235386319  0.0000
  Ge     Ge        0.331175454067396    0.235274435860426    0.990216088477445  0.0000
  Ge     Ge        0.178869019602652    0.707884180877591    0.985054436614298  0.0000
  Ge     Ge        0.679732854300320    0.710387487568917    0.062656842066823  0.0000
  Ge     Ge        0.838647637936678    0.226070465851487    0.050340693712187  0.0000
  Si     Si        0.552844160558358    0.992389994665141    0.641777915817482  0.0000
  Si     Si        0.959698691060618    0.937641481184170    0.114081504956553  0.0000
  Si     Si        0.357832865281930    0.631386298680919    0.997659884928122  0.0000
  Si     Si        0.152235206532359    0.313417542107188    0.988862119962955  0.0000
  O1     O1        0.083821341293519    0.205859651406624    0.384422593454081  0.0000
  O1     O1        0.420966398106370    0.734726988854584    0.400831997199245  0.0000
  O1     O1        0.870626667075777    0.079050311655147    0.641737929968365  0.0000
  O3     O3        0.625365318764218    0.866900187373994    0.659855110389694  0.0000
  O1     O1        0.922658317513922    0.740864352343912    0.656865867513767  0.0000
  O3     O3        0.573929369197793    0.186087762677093    0.677832177510914  0.0000
  O1     O1        0.126539885440685    0.856029133422401    0.397081050808191  0.0000
  O1     O1        0.377446636477855    0.084469896418462    0.406379801664745  0.0000
  O1     O1        0.975847523886534    0.959994748603614    0.464831770112839  0.0000
  O3     O3        0.528302566913003    0.984869247921419    0.490747969597450  0.0000
  O3     O3        0.029794140071817    0.973522148847127    0.207763244434340  0.0000
  O1     O1        0.481094916936702    0.964346203149913    0.232566077626484  0.0000
  O1     O1        0.027572425014045    0.006161195641083    0.713895001078932  0.0000
  O3     O3        0.480133233345984    0.931787335020077    0.722757057341957  0.0000
  O1     O1        0.595614052135477    0.196612529276137    0.160204138461714  0.0000
  O3     O3        0.927312793599244    0.748721370818489    0.137855451486062  0.0000
  O1     O1        0.373541096640081    0.089598737967197    0.889406704164724  0.0000
  O1     O1        0.136193351603071    0.853117451156127    0.882323422499306  0.0000
  O3     O3        0.419371863920962    0.738171785088003    0.920519214613698  0.0000
  O3     O3        0.092014368644916    0.206097398924251    0.906053001525290  0.0000
  O1     O1        0.628025761820167    0.848574234752553    0.156033975575897  0.0000
  O3     O3        0.892182344541770    0.077754960991068    0.137331891361586  0.0000
  O1     O1        0.523268261204972    0.000551444682501    0.975998017531237  0.0000
  O3     O3        0.986522168415034    0.945134989226809    0.964754733980417  0.0000
  O1     O1        0.163560190095829    0.513122685175385    0.355646557630674  0.0000
  O1     O1        0.342167341636874    0.427125381762499    0.360942371672197  0.0000
  O1     O1        0.841259727862639    0.431400296086033    0.673317942875181  0.0000
  O1     O1        0.651848678893548    0.506842343491843    0.687587128075672  0.0000
  O1     O1        0.233082479810053    0.188556371730911    0.302249005284546  0.0000
  O1     O1        0.272885848129411    0.752396602459437    0.307131336236915  0.0000
  O1     O1        0.730404930245114    0.197121669510153    0.740803414294620  0.0000
  O1     O1        0.768236993758974    0.741014572044664    0.737130391664226  0.0000
  O3     O3        0.123185585511862    0.335242151371833    0.135293873294075  0.0000
  O3     O3        0.384979203374116    0.611846587680697    0.146730340751412  0.0000
  O1     O1        0.864792932015096    0.216593671241969    0.890339166293722  0.0000
  O1     O1        0.644192265392924    0.721927447527547    0.905920538582857  0.0000
  O1     O1        0.884703377423605    0.601874481605089    0.895575259048991  0.0000
  O1     O1        0.622844123982410    0.333292430099561    0.912459292835077  0.0000
  O1     O1        0.146364847641150    0.737744249914013    0.139284016677525  0.0000
  O1     O1        0.363049690112670    0.202289711101035    0.146625516153222  0.0000
  O1     O1        0.672546568578434    0.507622230976655    0.127788765148697  0.0000
  O1     O1        0.852914380590276    0.427610128552826    0.116101749304976  0.0000
  O3     O3        0.350248479167499    0.441714146278774    0.938780352265684  0.0000
  O3     O3        0.161039971753448    0.501818211108227    0.929472700325736  0.0000
  O1     O1        0.742699756753802    0.190184942823717    0.059237321490132  0.0000
  O1     O1        0.775808154819603    0.746700946667148    0.058868341746791  0.0000
  O3     O3        0.233260888857816    0.211236544966367    0.989423056082732  0.0000
  O3     O3        0.276836077736103    0.733085655476349    0.989744649802422  0.0000
