data_c01050.vasp
_audit_creation_method             Generated by GULP
_audit_author_name                 Salvador R. G. Balestra
_symmetry_space_group_name_H-M     'P 1             '
_symmetry_Int_Tables_number        1

loop_
_symmetry_equiv_pos_site_id
_symmetry_equiv_pos_as_xyz
_cell_length_a                       17.6297
_cell_length_b                        7.8024
_cell_length_c                       10.1320
_cell_angle_alpha                   89.7739
_cell_angle_beta                    90.2059
_cell_angle_gamma                   91.4352

loop_
_atom_site_label
_atom_site_type_symbol
_atom_site_fract_x
_atom_site_fract_y
_atom_site_fract_z
_atom_site_charge
  Ge     Ge        0.052090000000021    0.000000000000000    0.372269999999958  0.0000
  Ge     Ge        0.445664374242230    0.054831262936736    0.351826120042618  0.0000
  Ge     Ge        0.941101782106074    0.056597641932781    0.617825024969496  0.0000
  Ge     Ge        0.542873930170586    0.990494960656008    0.085496410584172  0.0000
  Ge     Ge        0.945035300451821    0.050993200462171    0.121816148727625  0.0000
  Ge     Ge        0.047992219068203    0.990265931966418    0.868930212698159  0.0000
  Ge     Ge        0.173853438360906    0.284364430812352    0.257946758545870  0.0000
  Ge     Ge        0.324771488687267    0.774138611841626    0.258937206693276  0.0000
  Ge     Ge        0.839263915109249    0.370624553877828    0.673568359206690  0.0000
  Ge     Ge        0.820234862039142    0.766779753379474    0.692928831394528  0.0000
  Ge     Ge        0.145160966899082    0.687482725583575    0.251036561391005  0.0000
  Ge     Ge        0.353961733904515    0.368580582747509    0.262217092721497  0.0000
  Ge     Ge        0.670084812840885    0.276605099972193    0.009642944061818  0.0000
  Ge     Ge        0.822535787816523    0.764424210136967    0.011434917667520  0.0000
  Ge     Ge        0.355040819912391    0.357480933844518    0.943815533295207  0.0000
  Ge     Ge        0.148104827724872    0.678565159388682    0.929077133349399  0.0000
  Ge     Ge        0.328307129273011    0.765554204148712    0.938215474024296  0.0000
  Ge     Ge        0.173364119173799    0.276804607177849    0.939707299721222  0.0000
  Ge     Ge        0.642984466525292    0.682426693416613    0.017346710720451  0.0000
  Ge     Ge        0.848140098218594    0.359195534922178    0.000245345836451  0.0000
  Si     Si        0.552932404755707    0.006656705078319    0.592928236672090  0.0000
  Si     Si        0.444512280852872    0.048949734759245    0.827063711521203  0.0000
  Si     Si        0.640352885157476    0.695328344540962    0.708547568269144  0.0000
  Si     Si        0.661706453409705    0.303827366805349    0.693962009646237  0.0000
  O1     O1        0.128701326414727    0.136910428578229    0.357317966767003  0.0000
  O1     O1        0.371128711290125    0.910402839866230    0.365572387763985  0.0000
  O1     O1        0.904148052688983    0.254934580835160    0.589006231309481  0.0000
  O2     O2        0.587478303524791    0.820263774325804    0.621552159844358  0.0000
  O1     O1        0.864294816001647    0.918336971503695    0.597409457957457  0.0000
  O2     O2        0.613118923550311    0.164098973187705    0.609925717877624  0.0000
  O1     O1        0.076884058631613    0.794796322596000    0.334938402903065  0.0000
  O1     O1        0.414310764214355    0.259329671282359    0.364749835424036  0.0000
  O1     O1        0.020581197680398    0.007451392046528    0.533471843724614  0.0000
  O3     O3        0.525204870374824    0.008190035539786    0.442594509452110  0.0000
  O1     O1        0.974466178031884    0.062344985013758    0.283366400730114  0.0000
  O1     O1        0.471331041927398    0.034001338376134    0.187562280147106  0.0000
  O1     O1        0.969750587745761    0.042812911651290    0.781376170978570  0.0000
  O2     O2        0.476644016980574    0.037742198177068    0.677283913083507  0.0000
  O1     O1        0.618405697822396    0.134332390063052    0.100359279620456  0.0000
  O1     O1        0.869211111279864    0.910159903604304    0.109229094485952  0.0000
  O3     O3        0.418937713924129    0.242050471083033    0.853350998702102  0.0000
  O1     O1        0.083109909657755    0.789664746257534    0.839195840694741  0.0000
  O3     O3        0.373143404551559    0.918597099095313    0.840942683262927  0.0000
  O1     O1        0.122725612670287    0.133989614952681    0.846004696625990  0.0000
  O1     O1        0.577728865014642    0.788219928065807    0.108067328285105  0.0000
  O1     O1        0.920439280015734    0.254199027086788    0.073996133506335  0.0000
  O3     O3        0.512099360277228    0.998454103500449    0.923113527959504  0.0000
  O1     O1        0.021388786837908    0.986027047414376    0.032985086231884  0.0000
  O1     O1        0.158764604204367    0.487770859129629    0.317090080765337  0.0000
  O1     O1        0.338742846348256    0.569220699895805    0.318404269477610  0.0000
  O1     O1        0.837383628824968    0.575259528791349    0.616263303957554  0.0000
  O2     O2        0.644215885428211    0.501060560486761    0.648275075374007  0.0000
  O1     O1        0.269487061213314    0.251802154374935    0.255124498855875  0.0000
  O1     O1        0.228990668071426    0.807180489277058    0.255668655993890  0.0000
  O3     O3        0.749761166319331    0.271203905665915    0.669210171400952  0.0000
  O3     O3        0.723331500512378    0.783493108640112    0.709281318301950  0.0000
  O1     O1        0.139556692703574    0.264482820675061    0.099243555125824  0.0000
  O1     O1        0.358625160486084    0.785967978006077    0.099135716910173  0.0000
  O1     O1        0.866699025224290    0.386768691364820    0.835675584547380  0.0000
  O3     O3        0.609249485081722    0.677903710547569    0.854783054477622  0.0000
  O1     O1        0.855229339797984    0.782856973371415    0.851476120607171  0.0000
  O3     O3        0.640735286026495    0.278375790336965    0.845796987673264  0.0000
  O1     O1        0.118598620240162    0.656113796560693    0.090334880732004  0.0000
  O1     O1        0.387881194901190    0.378736830979075    0.102849620084261  0.0000
  O1     O1        0.655833625703770    0.479483968487579    0.071783401736480  0.0000
  O1     O1        0.837697515128347    0.558548810320296    0.066788114608314  0.0000
  O1     O1        0.344918018941486    0.560948790671756    0.882583276249310  0.0000
  O1     O1        0.160523387084993    0.477275079753116    0.870613362359412  0.0000
  O1     O1        0.765043072597009    0.238634021920638    0.016370541486656  0.0000
  O1     O1        0.727053269063931    0.798647249240045    0.017596713489657  0.0000
  O1     O1        0.269354912883363    0.246754826042278    0.943969226946653  0.0000
  O1     O1        0.232589856797323    0.795465050215068    0.931744902137755  0.0000
