data_c01099.vasp
_audit_creation_method             Generated by GULP
_audit_author_name                 Salvador R. G. Balestra
_symmetry_space_group_name_H-M     'P 1             '
_symmetry_Int_Tables_number        1

loop_
_symmetry_equiv_pos_site_id
_symmetry_equiv_pos_as_xyz
_cell_length_a                       17.6437
_cell_length_b                        7.8452
_cell_length_c                       10.1980
_cell_angle_alpha                   90.6695
_cell_angle_beta                    91.2257
_cell_angle_gamma                   88.6077

loop_
_atom_site_label
_atom_site_type_symbol
_atom_site_fract_x
_atom_site_fract_y
_atom_site_fract_z
_atom_site_charge
  Ge     Ge        0.052090000000021    0.000000000000000    0.372269999999958  0.0000
  Ge     Ge        0.451480176330132    0.944878925962213    0.354140780341951  0.0000
  Ge     Ge        0.944586824445737    0.931237283137104    0.619614317313268  0.0000
  Ge     Ge        0.556046053480925    0.991723905508803    0.098405379809648  0.0000
  Ge     Ge        0.449325695021328    0.938478493869749    0.840420670105439  0.0000
  Ge     Ge        0.049322206740479    0.993087759021421    0.878584694219003  0.0000
  Ge     Ge        0.147503313684081    0.309872759033786    0.264674595378090  0.0000
  Ge     Ge        0.355129504631104    0.629693373245625    0.275498930472844  0.0000
  Ge     Ge        0.824615498457145    0.220500977479113    0.699220205562031  0.0000
  Ge     Ge        0.664994694546778    0.678706593093690    0.708027159107379  0.0000
  Ge     Ge        0.848646873803437    0.619198985843897    0.691131032371815  0.0000
  Ge     Ge        0.175099037957811    0.710812458005208    0.265203576812306  0.0000
  Ge     Ge        0.327772297615805    0.226284924903885    0.271250483151439  0.0000
  Ge     Ge        0.660989327687036    0.295020743193133    0.032716537099569  0.0000
  Ge     Ge        0.857231841928902    0.632038495326601    0.006831817975971  0.0000
  Ge     Ge        0.327870491298560    0.223451072097927    0.952858042142374  0.0000
  Ge     Ge        0.175356083434381    0.708691543093295    0.946118332345603  0.0000
  Ge     Ge        0.355938903413460    0.628346767770994    0.955954958873445  0.0000
  Ge     Ge        0.147803450179761    0.308793768885335    0.945539708148529  0.0000
  Ge     Ge        0.674595028424563    0.695656881884023    0.023042342470893  0.0000
  Si     Si        0.555051849656528    0.978053634541574    0.602004168949472  0.0000
  Si     Si        0.949360938239538    0.944050901087769    0.123787909381118  0.0000
  Si     Si        0.647955990555251    0.283127613974010    0.719181320247088  0.0000
  Si     Si        0.837306716677079    0.233763396981244    0.012005039059509  0.0000
  O1     O1        0.081006218065994    0.203620531407176    0.350497713422171  0.0000
  O1     O1        0.419082967376532    0.742271769999007    0.369616881358847  0.0000
  O1     O1        0.868781737785488    0.073268901457162    0.603476536290895  0.0000
  O3     O3        0.616426458498990    0.825029481860804    0.611430227691862  0.0000
  O1     O1        0.908023276761349    0.732772299180116    0.595453327191605  0.0000
  O2     O2        0.586104632343684    0.160752588393989    0.650965080562521  0.0000
  O1     O1        0.127069008284410    0.860746997439132    0.355677855299041  0.0000
  O1     O1        0.377018907742172    0.087550024645745    0.371189357131736  0.0000
  O1     O1        0.020811166918653    0.978524002496359    0.530160846353245  0.0000
  O3     O3        0.529531159626069    0.992072266529090    0.450418411805403  0.0000
  O3     O3        0.972743381845843    0.953790229403491    0.276148866449869  0.0000
  O1     O1        0.480604723572480    0.964086553301849    0.193955420015006  0.0000
  O1     O1        0.973047701616701    0.949725883615620    0.782654185932276  0.0000
  O3     O3        0.479461780060235    0.936921929774043    0.679470996775730  0.0000
  O1     O1        0.600580942072030    0.183516627101881    0.123399664775137  0.0000
  O3     O3        0.919616836529212    0.754470611640983    0.097145867026007  0.0000
  O1     O1        0.372710237362158    0.075297726511266    0.856010348536210  0.0000
  O1     O1        0.124048855139786    0.851202941148876    0.853642714196282  0.0000
  O1     O1        0.423005371324191    0.733848590706820    0.872872070642313  0.0000
  O1     O1        0.082422303836548    0.194796173371015    0.856919614672680  0.0000
  O1     O1        0.625950461609522    0.836856035717577    0.119090308562959  0.0000
  O2     O2        0.885833023985446    0.089932329570501    0.089973441873584  0.0000
  O1     O1        0.524026264253806    0.997097015848163    0.937890440338759  0.0000
  O3     O3        0.024190037808609    0.976958830057350    0.042602442157498  0.0000
  O1     O1        0.160608124487116    0.510555694555213    0.327552883952404  0.0000
  O1     O1        0.342108279000132    0.429892557540445    0.332466224848918  0.0000
  O1     O1        0.840848519844394    0.416340511704920    0.632860101459797  0.0000
  O3     O3        0.649580013912193    0.469289727742922    0.654661847044592  0.0000
  O1     O1        0.232055992907158    0.193822333832660    0.269845956289839  0.0000
  O1     O1        0.270701352338083    0.745565300461908    0.271685841258201  0.0000
  O3     O3        0.728665317240190    0.186121484011176    0.704302029320699  0.0000
  O1     O1        0.759839711318143    0.714844128689160    0.698457909613314  0.0000
  O1     O1        0.118124697829871    0.331042701138496    0.104585368920177  0.0000
  O1     O1        0.385777022722351    0.612552477095457    0.116827395894615  0.0000
  O3     O3        0.859428370811373    0.224945043771132    0.859918233446094  0.0000
  O1     O1        0.636095129338939    0.706780631571668    0.865957756382761  0.0000
  O1     O1        0.886393568682589    0.619467331942483    0.848678605165165  0.0000
  O3     O3        0.629543075068680    0.313564199172542    0.870526880986520  0.0000
  O1     O1        0.144409970694821    0.718029627891766    0.104978415912245  0.0000
  O1     O1        0.360108498262584    0.208782561461861    0.113083760041425  0.0000
  O1     O1        0.665896752826163    0.497704437316546    0.091384416311303  0.0000
  O3     O3        0.852894474445992    0.424541396213520    0.065855339149604  0.0000
  O1     O1        0.343458782310205    0.425840458166506    0.896129571331459  0.0000
  O1     O1        0.160641657586919    0.505968882460705    0.882846218207908  0.0000
  O3     O3        0.749490440174489    0.193732070033488    0.029050980796152  0.0000
  O1     O1        0.769696181800096    0.730430489608614    0.012866232228006  0.0000
  O1     O1        0.232079366160923    0.192466451144170    0.949983860456057  0.0000
  O1     O1        0.271011420713658    0.742350474804099    0.946858712403137  0.0000
