data_c01057.vasp
_audit_creation_method             Generated by GULP
_audit_author_name                 Salvador R. G. Balestra
_symmetry_space_group_name_H-M     'P 1             '
_symmetry_Int_Tables_number        1

loop_
_symmetry_equiv_pos_site_id
_symmetry_equiv_pos_as_xyz
_cell_length_a                       17.8099
_cell_length_b                        7.8633
_cell_length_c                       10.2736
_cell_angle_alpha                   89.9791
_cell_angle_beta                    89.1770
_cell_angle_gamma                   90.1136

loop_
_atom_site_label
_atom_site_type_symbol
_atom_site_fract_x
_atom_site_fract_y
_atom_site_fract_z
_atom_site_charge
  Ge     Ge        0.052090000000021    0.000000000000000    0.372269999999958  0.0000
  Ge     Ge        0.437925742748246    0.982378225294313    0.408388162747811  0.0000
  Ge     Ge        0.945100030345653    0.012409381983531    0.629354600221808  0.0000
  Ge     Ge        0.542498242355383    0.992302886107462    0.145958229672150  0.0000
  Ge     Ge        0.943571672364657    0.014400785576559    0.125991457143578  0.0000
  Ge     Ge        0.052214053579642    0.013457723559676    0.876043094511104  0.0000
  Ge     Ge        0.341095660319674    0.668059251970780    0.325860926447160  0.0000
  Ge     Ge        0.843254073100727    0.321446297868279    0.744780353020973  0.0000
  Ge     Ge        0.643266915952216    0.673371892891952    0.747441087871365  0.0000
  Ge     Ge        0.823858834978461    0.726981281109450    0.745218295511459  0.0000
  Ge     Ge        0.663035738834320    0.267492426909673    0.751588779442166  0.0000
  Ge     Ge        0.325570406391831    0.266639791115959    0.315166581528356  0.0000
  Ge     Ge        0.664297735005299    0.271821300038860    0.069760688349414  0.0000
  Ge     Ge        0.821370889041011    0.733311913094723    0.061687443975715  0.0000
  Ge     Ge        0.331116061969499    0.272890192519809    0.000059776640445  0.0000
  Ge     Ge        0.170168002700853    0.730841667931353    0.002130639334869  0.0000
  Ge     Ge        0.350248106553512    0.682327114270897    0.007474712637851  0.0000
  Ge     Ge        0.150280725330911    0.320931440086524    0.993906615698536  0.0000
  Ge     Ge        0.642047042516120    0.676574476355520    0.064170145799344  0.0000
  Ge     Ge        0.843047155703423    0.328960480032900    0.063791233980908  0.0000
  Si     Si        0.548252632208739    0.980658312133273    0.646816627601863  0.0000
  Si     Si        0.445297303789801    0.992900375287422    0.894105269564339  0.0000
  Si     Si        0.147963000712369    0.314441373882872    0.299922071442572  0.0000
  Si     Si        0.164074280905145    0.709364994717578    0.310867298193275  0.0000
  O3     O3        0.096084048569419    0.196955232356950    0.391073377453409  0.0000
  O1     O1        0.397966288147519    0.785706169477913    0.424187659019564  0.0000
  O1     O1        0.909291548980055    0.211546078886288    0.657169816448492  0.0000
  O3     O3        0.581650934393786    0.792471962124431    0.655935244300295  0.0000
  O1     O1        0.874880287008658    0.866273629849122    0.652341146310691  0.0000
  O3     O3        0.613231093971691    0.118107914807548    0.665637572654801  0.0000
  O3     O3        0.113961298001936    0.832568061773816    0.400476931983246  0.0000
  O1     O1        0.365957607747518    0.127527243454461    0.419963458363893  0.0000
  O1     O1        0.974529551296475    0.993163244477454    0.469471801644404  0.0000
  O3     O3        0.514382153288403    0.010486879356214    0.504885805496882  0.0000
  O1     O1        0.021349101747614    0.980330159192150    0.215517234848637  0.0000
  O1     O1        0.469857175415128    0.016456612588257    0.251281375375220  0.0000
  O1     O1        0.025020944087195    0.983245024223866    0.718221416648646  0.0000
  O2     O2        0.478040722532052    0.002774327665991    0.746986899216417  0.0000
  O1     O1        0.614356421740914    0.136063095922837    0.166967285646795  0.0000
  O1     O1        0.872050289555724    0.870476108556711    0.153955727467979  0.0000
  O3     O3        0.378016958072848    0.127175961883481    0.903816695814576  0.0000
  O1     O1        0.122347535288106    0.871451455509489    0.910073682593399  0.0000
  O3     O3        0.416275309965634    0.802901080261389    0.924993433048790  0.0000
  O1     O1        0.087488754120629    0.215129911800947    0.900411185093928  0.0000
  O1     O1        0.578727279050670    0.790709700865510    0.155176175892901  0.0000
  O1     O1        0.907208470898153    0.214527517331024    0.149618278563384  0.0000
  O3     O3        0.511615797736626    0.040034908065590    0.990412781373189  0.0000
  O1     O1        0.971778739101440    0.985726390312497    0.966108746617097  0.0000
  O2     O2        0.153027183218331    0.509856126090149    0.350466413643352  0.0000
  O1     O1        0.340337715363634    0.464688116760692    0.380443761071109  0.0000
  O1     O1        0.834703874755689    0.523804288254564    0.685447802039797  0.0000
  O1     O1        0.649341816297841    0.469360153311045    0.689675422298277  0.0000
  O3     O3        0.230459055934319    0.232667303453970    0.297553660338174  0.0000
  O3     O3        0.251286927293640    0.754412717628154    0.324541782743765  0.0000
  O1     O1        0.757047656808162    0.221214160491685    0.740135400622276  0.0000
  O1     O1        0.729523421798651    0.771391835359224    0.742917099927110  0.0000
  O3     O3        0.116722952282105    0.312427797752293    0.154027565829699  0.0000
  O1     O1        0.375155840681943    0.675712301803252    0.168458164713030  0.0000
  O1     O1        0.871980140875181    0.333759629548903    0.903281334934008  0.0000
  O1     O1        0.611762084932959    0.668369629254011    0.905924140415440  0.0000
  O1     O1        0.853774102955120    0.735981327939280    0.902938977623352  0.0000
  O1     O1        0.634793640909984    0.267396445225406    0.910884406828785  0.0000
  O3     O3        0.139148850261816    0.736544800345203    0.162638910950183  0.0000
  O1     O1        0.360540831869516    0.257851234276779    0.158095497709116  0.0000
  O1     O1        0.652169387965891    0.477069144110516    0.126105259993316  0.0000
  O1     O1        0.832721495385410    0.530081432313402    0.122460715663582  0.0000
  O1     O1        0.347057421710111    0.478794435316830    0.948119432049862  0.0000
  O1     O1        0.156900549889127    0.527956838529457    0.944471203564846  0.0000
  O1     O1        0.757973779266059    0.223980774384602    0.070108018160422  0.0000
  O1     O1        0.727551461518571    0.780407067583408    0.063109751246310  0.0000
  O1     O1        0.237398323054651    0.228580490604294    0.987004889398696  0.0000
  O1     O1        0.264089304410676    0.777183831077429    0.995997698675942  0.0000
