data_c01091.vasp
_audit_creation_method             Generated by GULP
_audit_author_name                 Salvador R. G. Balestra
_symmetry_space_group_name_H-M     'P 1             '
_symmetry_Int_Tables_number        1

loop_
_symmetry_equiv_pos_site_id
_symmetry_equiv_pos_as_xyz
_cell_length_a                       17.4994
_cell_length_b                        7.8491
_cell_length_c                       10.2204
_cell_angle_alpha                   90.8235
_cell_angle_beta                    90.2869
_cell_angle_gamma                   87.8075

loop_
_atom_site_label
_atom_site_type_symbol
_atom_site_fract_x
_atom_site_fract_y
_atom_site_fract_z
_atom_site_charge
  Ge     Ge        0.052090000000021    0.000000000000000    0.372269999999958  0.0000
  Ge     Ge        0.446626910873087    0.944157417977100    0.384695567497499  0.0000
  Ge     Ge        0.944481033596245    0.937289352674615    0.620032312623972  0.0000
  Ge     Ge        0.555820944165033    0.000838771234941    0.137673808302921  0.0000
  Ge     Ge        0.449557446769759    0.934856482411709    0.883228037168252  0.0000
  Ge     Ge        0.042112593219623    0.001321240313374    0.884001992283661  0.0000
  Ge     Ge        0.140770256409857    0.318798541008564    0.263766243545240  0.0000
  Ge     Ge        0.350755490576073    0.632113456874751    0.269163197458557  0.0000
  Ge     Ge        0.824059090908448    0.228289226026945    0.704508084283176  0.0000
  Ge     Ge        0.665537235854166    0.707684532016642    0.708606311290120  0.0000
  Ge     Ge        0.847482359736005    0.630543348623733    0.698172740735375  0.0000
  Ge     Ge        0.640704705438910    0.304790681931234    0.709546950230906  0.0000
  Ge     Ge        0.324325569476299    0.233617857960198    0.269402898664522  0.0000
  Ge     Ge        0.643293924161570    0.318729845526300    0.023197575741106  0.0000
  Ge     Ge        0.851993348147844    0.638411260862813    0.015461936438609  0.0000
  Ge     Ge        0.324061015364535    0.224777814705873    0.952232282378354  0.0000
  Ge     Ge        0.170485563822931    0.711924647589797    0.952088762245874  0.0000
  Ge     Ge        0.351130589590931    0.626005183354857    0.949563073475542  0.0000
  Ge     Ge        0.141995201893615    0.311882320308340    0.947850246247549  0.0000
  Ge     Ge        0.828476209468616    0.238885175352753    0.020684422218534  0.0000
  Si     Si        0.548418921214082    0.995100488112002    0.634202474156078  0.0000
  Si     Si        0.941556071330184    0.948991530128563    0.134899859659922  0.0000
  Si     Si        0.170702078629646    0.709539399977642    0.263480189194939  0.0000
  Si     Si        0.670564678566382    0.710650801454337    0.018909163947808  0.0000
  O1     O1        0.077892044215159    0.206206427536312    0.354314001335745  0.0000
  O1     O1        0.415923810294005    0.742047876547790    0.358005233649802  0.0000
  O1     O1        0.871270686178602    0.087928549038176    0.601527740822502  0.0000
  O3     O3        0.615485362072956    0.851162089242865    0.611429502549494  0.0000
  O1     O1        0.909040528859078    0.737773091511847    0.601602783475836  0.0000
  O3     O3        0.580016804461210    0.182376962243396    0.614999574039274  0.0000
  O3     O3        0.128591069276172    0.859854357517441    0.345598279963892  0.0000
  O1     O1        0.370043220843875    0.081894369804958    0.362103570913356  0.0000
  O1     O1        0.023798414105847    0.973900900250874    0.531702061364434  0.0000
  O3     O3        0.474630962324972    0.961860250470739    0.547929207135608  0.0000
  O3     O3        0.970488970372467    0.953515329055125    0.284043540843643  0.0000
  O1     O1        0.526337672999321    0.986983539232315    0.296732780270136  0.0000
  O1     O1        0.968768770302061    0.955139423486752    0.784645059071251  0.0000
  O3     O3        0.525978639742325    0.976770998068464    0.787007134930704  0.0000
  O1     O1        0.583008656763326    0.207344912440483    0.117396127165886  0.0000
  O3     O3        0.915343855454114    0.758843773504679    0.101910833240038  0.0000
  O1     O1        0.374116539265841    0.078587554322024    0.858993237056967  0.0000
  O1     O1        0.117800751620848    0.855872587384494    0.864892854131890  0.0000
  O1     O1        0.416818534177220    0.732803104391076    0.861719780138838  0.0000
  O1     O1        0.077249408147039    0.199990435365530    0.858516293946928  0.0000
  O3     O3        0.632516134378263    0.860276543635569    0.106456979932923  0.0000
  O3     O3        0.870486813786246    0.081769863299113    0.115749373179375  0.0000
  O1     O1        0.478418631430607    0.953251371546306    0.044068281296328  0.0000
  O3     O3        0.012648601393285    0.998164626108802    0.046324603382848  0.0000
  O3     O3        0.152443215540121    0.525303594495498    0.322363141326868  0.0000
  O1     O1        0.343149269404400    0.432954393595270    0.331539704250091  0.0000
  O1     O1        0.834939292891256    0.429022053123592    0.641471764139749  0.0000
  O1     O1        0.649323302718551    0.504675260694791    0.649174459452937  0.0000
  O1     O1        0.227635229632425    0.209625443775507    0.269377062305432  0.0000
  O3     O3        0.261155460963130    0.736353217830324    0.268023620716357  0.0000
  O1     O1        0.728038300473138    0.196144798430537    0.713454692496919  0.0000
  O1     O1        0.760802294396633    0.744010955100356    0.700441691296090  0.0000
  O1     O1        0.108812440278622    0.327748536466722    0.106250039933824  0.0000
  O1     O1        0.380734009358946    0.614336232907170    0.110158318387125  0.0000
  O1     O1        0.860374022095774    0.220111757466295    0.862090053978090  0.0000
  O3     O3        0.637028916637166    0.716178958024236    0.871547534627302  0.0000
  O1     O1        0.881670103461022    0.619512652807318    0.856462338323681  0.0000
  O1     O1        0.607206739100572    0.322259227458022    0.866916538539043  0.0000
  O3     O3        0.141305637128929    0.714575548104699    0.114356216101119  0.0000
  O1     O1        0.357042789526516    0.216953847680626    0.111369336696674  0.0000
  O3     O3        0.652999861424028    0.526941028655358    0.078853826173217  0.0000
  O1     O1        0.849559161021883    0.438630237552387    0.080019670772268  0.0000
  O1     O1        0.338170022088674    0.425600590696576    0.890596403138208  0.0000
  O1     O1        0.155097032348371    0.510068683123958    0.888848418262314  0.0000
  O1     O1        0.731836107812542    0.217297351784740    0.022454445336126  0.0000
  O3     O3        0.761166054710840    0.733725350903847    0.013628369148317  0.0000
  O1     O1        0.227731475265982    0.195050694307150    0.951594217121194  0.0000
  O1     O1        0.266049049552159    0.745734593836369    0.945362645098489  0.0000
