data_c01086.vasp
_audit_creation_method             Generated by GULP
_audit_author_name                 Salvador R. G. Balestra
_symmetry_space_group_name_H-M     'P 1             '
_symmetry_Int_Tables_number        1

loop_
_symmetry_equiv_pos_site_id
_symmetry_equiv_pos_as_xyz
_cell_length_a                       17.6137
_cell_length_b                        7.8088
_cell_length_c                       10.1921
_cell_angle_alpha                   88.6086
_cell_angle_beta                    91.2442
_cell_angle_gamma                   91.2153

loop_
_atom_site_label
_atom_site_type_symbol
_atom_site_fract_x
_atom_site_fract_y
_atom_site_fract_z
_atom_site_charge
  Ge     Ge        0.052090000000021    0.000000000000000    0.372269999999958  0.0000
  Ge     Ge        0.444280939233730    0.056801298627754    0.377680039180039  0.0000
  Ge     Ge        0.944690400125062    0.063985065194816    0.618505632034139  0.0000
  Ge     Ge        0.556046052961085    0.008964255082786    0.138169238385742  0.0000
  Ge     Ge        0.449080824759733    0.081714972920386    0.880301795397008  0.0000
  Ge     Ge        0.047780339933120    0.015762923655645    0.882519168342792  0.0000
  Ge     Ge        0.173508788582264    0.287309352817003    0.260132905054441  0.0000
  Ge     Ge        0.326520014265235    0.764331794591398    0.269976072147131  0.0000
  Ge     Ge        0.846680911353606    0.376848248587877    0.691178791605889  0.0000
  Ge     Ge        0.640808092460018    0.706240774155084    0.698805378331587  0.0000
  Ge     Ge        0.821562699835067    0.780124134687569    0.691862299792296  0.0000
  Ge     Ge        0.665408300557393    0.301423167242554    0.703554256569373  0.0000
  Ge     Ge        0.145591161348605    0.689209514054537    0.263894525330096  0.0000
  Ge     Ge        0.675323758716838    0.296187317507720    0.021608091568714  0.0000
  Ge     Ge        0.829200067963205    0.780457900946176    0.011720834375433  0.0000
  Ge     Ge        0.347864800854190    0.390436371460801    0.938615627344137  0.0000
  Ge     Ge        0.326016307613104    0.792097485195874    0.953959296683017  0.0000
  Ge     Ge        0.169250099947698    0.311077743907469    0.941433872920720  0.0000
  Ge     Ge        0.648181908550360    0.699893877081302    0.018515991615676  0.0000
  Ge     Ge        0.856364948510818    0.376193062227950    0.009104113237645  0.0000
  Si     Si        0.546045339572467    0.020955626308383    0.630137102846669  0.0000
  Si     Si        0.946501883771978    0.063819820158339    0.127445273632214  0.0000
  Si     Si        0.349849324092742    0.367871995166261    0.254823737315998  0.0000
  Si     Si        0.149540304709225    0.708095764798974    0.951703244307852  0.0000
  O1     O1        0.130925932142557    0.128330815653056    0.351045144603922  0.0000
  O1     O1        0.374712572133252    0.901705688818720    0.371506784314723  0.0000
  O1     O1        0.908856602639609    0.266005154635343    0.599390594541524  0.0000
  O3     O3        0.575391407604686    0.829748352383253    0.610859330507105  0.0000
  O1     O1        0.870963297154485    0.919874919975627    0.592863978172535  0.0000
  O3     O3        0.614739883185561    0.157234261601020    0.608178620339519  0.0000
  O1     O1        0.076851764807416    0.793030437784966    0.345159201202582  0.0000
  O3     O3        0.413966852025148    0.258301945946309    0.329423158041958  0.0000
  O1     O1        0.023063499139010    0.024041359019290    0.530630251723930  0.0000
  O3     O3        0.473175187338016    0.065339185660326    0.542073399592138  0.0000
  O3     O3        0.972726313060374    0.057147492233467    0.279220527441537  0.0000
  O1     O1        0.524126891700660    0.007075393729205    0.295844831129958  0.0000
  O1     O1        0.970892289477624    0.036672059406667    0.782654620553767  0.0000
  O3     O3        0.523065729061806    0.034931058311107    0.782904263493087  0.0000
  O1     O1        0.633205769392325    0.144996108957962    0.120804284619283  0.0000
  O3     O3        0.875600508301831    0.935098915943988    0.102823352671233  0.0000
  O1     O1        0.415600751504763    0.285873390889045    0.856655986201666  0.0000
  O3     O3        0.090949795056453    0.819235037424899    0.865765473869752  0.0000
  O1     O1        0.372217685961210    0.943226622902043    0.861585940310112  0.0000
  O1     O1        0.112188753626721    0.179461300459422    0.849525529894879  0.0000
  O1     O1        0.582242740859430    0.804094493146137    0.104576239191752  0.0000
  O3     O3        0.924530626099780    0.258591008626206    0.092689131651726  0.0000
  O1     O1        0.480928526928488    0.071193706706299    0.040504417208976  0.0000
  O3     O3        0.018549082507018    0.011528991990647    0.044304436248057  0.0000
  O1     O1        0.153306783616908    0.483008134172966    0.323105185969148  0.0000
  O3     O3        0.340141050249565    0.551744054328862    0.319400574285233  0.0000
  O1     O1        0.832081455686277    0.578302534937575    0.629674587633482  0.0000
  O1     O1        0.649197935635447    0.505152559607914    0.639332297250339  0.0000
  O3     O3        0.270925856322923    0.259693218704002    0.261456130763181  0.0000
  O1     O1        0.230963025664413    0.798201224028658    0.278426987006694  0.0000
  O1     O1        0.760966018484330    0.265106547929472    0.698525208546779  0.0000
  O1     O1        0.726249070541380    0.817718408446676    0.694386104511993  0.0000
  O1     O1        0.141854025861001    0.275517257859474    0.100493810281782  0.0000
  O1     O1        0.358940072458179    0.803756458022358    0.114197004685673  0.0000
  O1     O1        0.882682762179005    0.396602022332729    0.848607859168830  0.0000
  O1     O1        0.615332659720673    0.680943933407596    0.859462213696564  0.0000
  O1     O1        0.856260143148331    0.789682110197505    0.851270474335912  0.0000
  O1     O1        0.637628915365932    0.286257244891193    0.864392590821000  0.0000
  O3     O3        0.120898853752279    0.673714845186490    0.099089715105479  0.0000
  O3     O3        0.371106379723176    0.404967273016464    0.104724340095876  0.0000
  O1     O1        0.661838465321424    0.497426452624751    0.081666149073282  0.0000
  O1     O1        0.848479204458738    0.576588019488073    0.072121814594495  0.0000
  O1     O1        0.341886873472591    0.597336069629334    0.884543198022630  0.0000
  O3     O3        0.160744505165188    0.524466652710197    0.889321029072251  0.0000
  O1     O1        0.771144075886599    0.265869960180773    0.014785435202761  0.0000
  O1     O1        0.733463490559768    0.812561955647805    0.019152367635724  0.0000
  O1     O1        0.263989927005807    0.273870739192917    0.925758185713315  0.0000
  O3     O3        0.228682925393451    0.816604307877950    0.960132507947656  0.0000
