data_c01048.vasp
_audit_creation_method             Generated by GULP
_audit_author_name                 Salvador R. G. Balestra
_symmetry_space_group_name_H-M     'P 1             '
_symmetry_Int_Tables_number        1

loop_
_symmetry_equiv_pos_site_id
_symmetry_equiv_pos_as_xyz
_cell_length_a                       17.7211
_cell_length_b                        7.8756
_cell_length_c                       10.3268
_cell_angle_alpha                   88.4505
_cell_angle_beta                    90.9856
_cell_angle_gamma                   89.8119

loop_
_atom_site_label
_atom_site_type_symbol
_atom_site_fract_x
_atom_site_fract_y
_atom_site_fract_z
_atom_site_charge
  Ge     Ge        0.052090000000021    0.000000000000000    0.372269999999958  0.0000
  Ge     Ge        0.447473152272991    0.980236178766774    0.411282284279621  0.0000
  Ge     Ge        0.940490012077406    0.031360962159378    0.612145522357573  0.0000
  Ge     Ge        0.554308286932345    0.983828457186166    0.159510691175718  0.0000
  Ge     Ge        0.950807631566703    0.008646360966335    0.111086862405450  0.0000
  Ge     Ge        0.054737777194429    0.021226679055595    0.859456004240534  0.0000
  Ge     Ge        0.155437754401774    0.310514836549850    0.294028157509592  0.0000
  Ge     Ge        0.351068833522226    0.668847974700115    0.304648372887482  0.0000
  Ge     Ge        0.842540499687587    0.340949618617141    0.718759627216005  0.0000
  Ge     Ge        0.822973413185645    0.742517130453051    0.731156864039800  0.0000
  Ge     Ge        0.659078246559544    0.294637394137309    0.730480743304775  0.0000
  Ge     Ge        0.168697300121735    0.714708925799263    0.300855348148173  0.0000
  Ge     Ge        0.670527638769312    0.268218557769578    0.043463473644133  0.0000
  Ge     Ge        0.827242067991701    0.731548694036858    0.046156837077737  0.0000
  Ge     Ge        0.334256145093439    0.286065030851922    0.983649297525391  0.0000
  Ge     Ge        0.171765530780132    0.734801639068221    0.987452761232915  0.0000
  Ge     Ge        0.354876254518882    0.690314444456151    0.993842945467644  0.0000
  Ge     Ge        0.152358240163306    0.327642303471456    0.978290325730737  0.0000
  Ge     Ge        0.648315905505664    0.672638081789762    0.047533530224797  0.0000
  Ge     Ge        0.850274277911553    0.327047236798183    0.034949442618499  0.0000
  Si     Si        0.547190545976196    0.004086792726114    0.666903972649585  0.0000
  Si     Si        0.448133709839144    0.006109956042944    0.912030749395694  0.0000
  Si     Si        0.644404236729331    0.689595704456843    0.738917771123314  0.0000
  Si     Si        0.333350800411387    0.270733409256243    0.291732067925594  0.0000
  O1     O1        0.099018087503090    0.188398248359613    0.390595649921787  0.0000
  O1     O1        0.409791932319407    0.780793259060863    0.403635694033465  0.0000
  O1     O1        0.905001492886394    0.232382013099219    0.626700700265435  0.0000
  O2     O2        0.588727887816861    0.820607635259929    0.659869988883157  0.0000
  O1     O1        0.866417361957427    0.897484667033409    0.642588016383526  0.0000
  O3     O3        0.605929038065123    0.155318712839752    0.639480669981856  0.0000
  O1     O1        0.116476155694634    0.838951181780362    0.399530023392535  0.0000
  O3     O3        0.378635744409788    0.130694593313375    0.375771500319186  0.0000
  O1     O1        0.970802241002493    0.995147926014871    0.457532331981951  0.0000
  O3     O3        0.477640129560789    0.012971807233389    0.568495834338558  0.0000
  O1     O1        0.026565372116904    0.981003089084689    0.211001199246455  0.0000
  O1     O1        0.524101571851345    0.001350162084944    0.314502886966813  0.0000
  O1     O1        0.021590887788959    0.000839467181235    0.703409976899710  0.0000
  O2     O2        0.515782872566910    0.028082733473186    0.811700345121976  0.0000
  O1     O1        0.628702854430248    0.119631916486912    0.140659156033837  0.0000
  O1     O1        0.880003502127743    0.862975053629375    0.139048807464621  0.0000
  O3     O3        0.383473494577685    0.147941326180449    0.889687990099775  0.0000
  O1     O1        0.127913918647453    0.881497935278376    0.887869625890932  0.0000
  O3     O3        0.413099735212099    0.819310658618680    0.901765743531015  0.0000
  O1     O1        0.088035932332548    0.222857899071871    0.885259075355985  0.0000
  O1     O1        0.582269332610274    0.778932611804617    0.131688763289246  0.0000
  O1     O1        0.914571063439928    0.210247959362016    0.124479073520715  0.0000
  O3     O3        0.480388355796567    0.038903923472244    0.055568158031952  0.0000
  O1     O1        0.978950970673592    0.977870090478397    0.954650259678193  0.0000
  O1     O1        0.157744069244594    0.508353472522227    0.355143226433223  0.0000
  O3     O3        0.343440040512524    0.456932969572421    0.351828317613048  0.0000
  O1     O1        0.838723865694578    0.548592686169266    0.664686402603405  0.0000
  O3     O3        0.645279862937307    0.505215210293067    0.676225094565699  0.0000
  O3     O3        0.245380188574791    0.222873706457508    0.288804052420712  0.0000
  O1     O1        0.263064759050041    0.760634215351701    0.305842336458926  0.0000
  O1     O1        0.753554190741365    0.253345777633661    0.714328698144399  0.0000
  O3     O3        0.726563032976836    0.774939033860591    0.737559999181001  0.0000
  O1     O1        0.122499215015128    0.316252330314787    0.136204700644579  0.0000
  O1     O1        0.387708902175234    0.685656663588206    0.151644952806185  0.0000
  O1     O1        0.877277916482804    0.336620549510558    0.875398707766045  0.0000
  O3     O3        0.619099880085255    0.664221239552981    0.886502203371597  0.0000
  O1     O1        0.855999983739255    0.744572803112689    0.887662882473365  0.0000
  O1     O1        0.633756884498975    0.269193881033091    0.888481252215400  0.0000
  O1     O1        0.137392992625951    0.734936904070105    0.142045927502513  0.0000
  O3     O3        0.362670857982077    0.279896540475823    0.145265923421317  0.0000
  O1     O1        0.658578708500794    0.468219643294893    0.104909191173317  0.0000
  O1     O1        0.840849387233394    0.523358069329247    0.098082376976075  0.0000
  O1     O1        0.350310974311980    0.492002775359292    0.930864025454685  0.0000
  O1     O1        0.158576854893775    0.535311628848065    0.926796712940326  0.0000
  O1     O1        0.764844271526151    0.223765501779396    0.035073518780572  0.0000
  O1     O1        0.733040707310791    0.777805497734173    0.056356216728187  0.0000
  O1     O1        0.240775922938857    0.237214526842222    0.970012479224297  0.0000
  O1     O1        0.266264420343055    0.777971661730225    0.996297653770970  0.0000
