data_c01029.vasp
_audit_creation_method             Generated by GULP
_audit_author_name                 Salvador R. G. Balestra
_symmetry_space_group_name_H-M     'P 1             '
_symmetry_Int_Tables_number        1

loop_
_symmetry_equiv_pos_site_id
_symmetry_equiv_pos_as_xyz
_cell_length_a                       17.7697
_cell_length_b                        7.8576
_cell_length_c                       10.3234
_cell_angle_alpha                   90.7688
_cell_angle_beta                    90.3474
_cell_angle_gamma                   90.3883

loop_
_atom_site_label
_atom_site_type_symbol
_atom_site_fract_x
_atom_site_fract_y
_atom_site_fract_z
_atom_site_charge
  Ge     Ge        0.052090000000021    0.000000000000000    0.372269999999958  0.0000
  Ge     Ge        0.447613454396399    0.974919710856910    0.355939696260033  0.0000
  Ge     Ge        0.946584438987822    0.989919130777134    0.624171250265662  0.0000
  Ge     Ge        0.545766398678170    0.979551357381882    0.089901420571525  0.0000
  Ge     Ge        0.944539538197949    0.001845291096392    0.125494669375022  0.0000
  Ge     Ge        0.054211572238580    0.986900718119624    0.880113414228238  0.0000
  Ge     Ge        0.151262320618098    0.308799713025582    0.256823055459846  0.0000
  Ge     Ge        0.351407305984427    0.658601638632245    0.263369032421608  0.0000
  Ge     Ge        0.839483829386638    0.297720706233016    0.693452727549231  0.0000
  Ge     Ge        0.644260190205082    0.657481774262188    0.699062732687078  0.0000
  Ge     Ge        0.827020922244588    0.700745474550597    0.689769589474077  0.0000
  Ge     Ge        0.172067648621283    0.716562040644694    0.255593777716911  0.0000
  Ge     Ge        0.329518915196263    0.248758909372386    0.265528312818080  0.0000
  Ge     Ge        0.669967700358321    0.262792565111247    0.020266298091326  0.0000
  Ge     Ge        0.825428356241249    0.718054641438943    0.003126641670415  0.0000
  Ge     Ge        0.332758386249755    0.247134598268029    0.950651541417678  0.0000
  Ge     Ge        0.171146512129834    0.697588247528999    0.941933853288855  0.0000
  Ge     Ge        0.353572966238019    0.654067537539506    0.948020727546998  0.0000
  Ge     Ge        0.644006112240074    0.662123278836370    0.010429893860095  0.0000
  Ge     Ge        0.849132668620156    0.311939663567697    0.012255234244179  0.0000
  Si     Si        0.550898568002440    0.970265241376746    0.603231289625920  0.0000
  Si     Si        0.443686261341884    0.967712498929096    0.838530242059113  0.0000
  Si     Si        0.662370826101420    0.261992239275147    0.708693221608704  0.0000
  Si     Si        0.154864147160602    0.300916135445436    0.948366833117966  0.0000
  O1     O1        0.083522069036443    0.202326833172358    0.339603399011171  0.0000
  O1     O1        0.412230047218956    0.772244746200068    0.361842172065234  0.0000
  O1     O1        0.898017999331449    0.175736547097399    0.601986458650558  0.0000
  O3     O3        0.586033734201442    0.783667027427275    0.605790936107894  0.0000
  O1     O1        0.881559266153272    0.830140476048974    0.596935287896172  0.0000
  O2     O2        0.612158901393814    0.113410643492736    0.642572687347843  0.0000
  O1     O1        0.122789475327804    0.856576800917669    0.349185550159438  0.0000
  O1     O1        0.376386396307078    0.120325338389403    0.370641924094727  0.0000
  O1     O1        0.025275463039662    0.981884083455236    0.531345879605914  0.0000
  O3     O3        0.522553059745895    0.007186239714255    0.459297686074217  0.0000
  O1     O1        0.971684022115124    0.966921186161179    0.282642094288147  0.0000
  O1     O1        0.478535817286034    0.013833803971468    0.201120759473842  0.0000
  O1     O1        0.977013340553961    0.978102120208229    0.782873923618467  0.0000
  O2     O2        0.476591331556470    0.980658702434573    0.693408625508396  0.0000
  O1     O1        0.619686452476800    0.121352618848881    0.106616055974076  0.0000
  O1     O1        0.869172883170525    0.870912303082846    0.094549579278417  0.0000
  O3     O3        0.373109466071475    0.093419456464423    0.853534455011973  0.0000
  O1     O1        0.118473737191395    0.828248374770709    0.847403000100121  0.0000
  O3     O3        0.416809472163737    0.775100684848426    0.862158396272497  0.0000
  O3     O3        0.098969257539143    0.183264782830370    0.864474678746417  0.0000
  O1     O1        0.582347881063010    0.779265389253190    0.101411156753451  0.0000
  O1     O1        0.916664706293361    0.207959993923215    0.098108860227753  0.0000
  O3     O3        0.508927778937121    0.022867015723244    0.937928167229983  0.0000
  O1     O1        0.022936439382118    0.958027695212658    0.035356078549034  0.0000
  O1     O1        0.160608309451787    0.512944798830063    0.313590238876515  0.0000
  O1     O1        0.340357041816534    0.457147329053673    0.318036443460846  0.0000
  O1     O1        0.837069061149098    0.496717811387946    0.631284818687195  0.0000
  O3     O3        0.647843575282445    0.446072881562920    0.645333360983235  0.0000
  O1     O1        0.235052513370750    0.202123179271671    0.268021112076937  0.0000
  O1     O1        0.266465281056670    0.763190241210694    0.259071192118238  0.0000
  O3     O3        0.749115427242039    0.210657748444644    0.694017024792307  0.0000
  O1     O1        0.732698782509055    0.744760757232718    0.689131108657192  0.0000
  O3     O3        0.124736958294092    0.317240259228951    0.094841887831604  0.0000
  O1     O1        0.384027382403578    0.655306938096661    0.106263984242344  0.0000
  O1     O1        0.871903245268629    0.305675939189360    0.850568945104675  0.0000
  O1     O1        0.610302853448960    0.663602715500151    0.853159964490531  0.0000
  O1     O1        0.858821812182861    0.717764879369581    0.847345708337851  0.0000
  O3     O3        0.642838317556409    0.280156901879336    0.859163794008769  0.0000
  O1     O1        0.140722616691918    0.722983126306477    0.098447628334171  0.0000
  O1     O1        0.362141711528004    0.233353689546380    0.108542448915004  0.0000
  O1     O1        0.653741544878481    0.466785752621591    0.077540972263896  0.0000
  O1     O1        0.841474044193418    0.518643469944282    0.064921163941933  0.0000
  O1     O1        0.352184817258766    0.446898963258336    0.893039461543562  0.0000
  O3     O3        0.160772105531877    0.487634348389477    0.888587000514975  0.0000
  O1     O1        0.762982896433342    0.213113141817947    0.030251170099162  0.0000
  O1     O1        0.731006583775813    0.758582083657608    0.000880313707695  0.0000
  O3     O3        0.236577259098170    0.213486083606123    0.952110521856259  0.0000
  O1     O1        0.265682394900018    0.742003372412357    0.937251690683558  0.0000
