data_c01041.vasp
_audit_creation_method             Generated by GULP
_audit_author_name                 Salvador R. G. Balestra
_symmetry_space_group_name_H-M     'P 1             '
_symmetry_Int_Tables_number        1

loop_
_symmetry_equiv_pos_site_id
_symmetry_equiv_pos_as_xyz
_cell_length_a                       17.6962
_cell_length_b                        7.8986
_cell_length_c                       10.3275
_cell_angle_alpha                   89.1893
_cell_angle_beta                    89.5476
_cell_angle_gamma                   89.9892

loop_
_atom_site_label
_atom_site_type_symbol
_atom_site_fract_x
_atom_site_fract_y
_atom_site_fract_z
_atom_site_charge
  Ge     Ge        0.052090000000021    0.000000000000000    0.372269999999958  0.0000
  Ge     Ge        0.447426106944435    0.982486719749097    0.387933207163975  0.0000
  Ge     Ge        0.947839026385532    0.004539629103894    0.626407614447651  0.0000
  Ge     Ge        0.548130753124119    0.986618194164124    0.124071291128418  0.0000
  Ge     Ge        0.952712608891204    0.003020313783416    0.113045943630741  0.0000
  Ge     Ge        0.062956314107200    0.005971687787162    0.863151251318158  0.0000
  Ge     Ge        0.151547103387207    0.313114022676467    0.289338297792813  0.0000
  Ge     Ge        0.352073773907624    0.672673951245728    0.297435839457750  0.0000
  Ge     Ge        0.851292686388579    0.321994135974180    0.735151442135177  0.0000
  Ge     Ge        0.653015664598878    0.679906518974841    0.734674674676954  0.0000
  Ge     Ge        0.668087955818407    0.278889068603502    0.734726428064429  0.0000
  Ge     Ge        0.171687357907078    0.719908939051299    0.291728249767352  0.0000
  Ge     Ge        0.333083257500443    0.265195157776153    0.293678998709414  0.0000
  Ge     Ge        0.669926705490115    0.269599382560136    0.049900097001864  0.0000
  Ge     Ge        0.829374248140550    0.720731757445993    0.048810533601068  0.0000
  Ge     Ge        0.339332344188758    0.278696554692655    0.980502072325129  0.0000
  Ge     Ge        0.354793779171635    0.682524602001648    0.983974644415032  0.0000
  Ge     Ge        0.154906694812447    0.323650176662935    0.977902577865856  0.0000
  Ge     Ge        0.649126253061175    0.673001249929253    0.049955573566463  0.0000
  Ge     Ge        0.851160663299307    0.317982356095160    0.048908039009530  0.0000
  Si     Si        0.556659803427468    0.989851037062125    0.628634419426674  0.0000
  Si     Si        0.449302949521228    0.995037085785444    0.869551752067538  0.0000
  Si     Si        0.832480129234047    0.717336690390032    0.740725598721127  0.0000
  Si     Si        0.173942453792775    0.720953064583113    0.984927085628840  0.0000
  O1     O1        0.091946126998887    0.196936826431566    0.387220183614106  0.0000
  O1     O1        0.410327441695649    0.782917307447565    0.398422283041433  0.0000
  O1     O1        0.912837501701817    0.205508033131518    0.644114025159598  0.0000
  O3     O3        0.595233669463822    0.807524057434204    0.642450039137380  0.0000
  O3     O3        0.878622336940767    0.857129050568941    0.659933270414414  0.0000
  O3     O3        0.618520361931349    0.133997942830056    0.646135706627666  0.0000
  O1     O1        0.120621639090316    0.847126852544736    0.391297327628249  0.0000
  O1     O1        0.377794697529674    0.132611050044715    0.400829748718164  0.0000
  O1     O1        0.973846025793957    0.977768180725561    0.466856923183313  0.0000
  O3     O3        0.524260851118928    0.009378368490319    0.484868390110053  0.0000
  O1     O1        0.026592863147473    0.972040797342181    0.212804401652084  0.0000
  O1     O1        0.476872450881994    0.016753131526450    0.229632808440100  0.0000
  O1     O1        0.031474498737678    0.979404132119474    0.708021013840495  0.0000
  O2     O2        0.484355629218544    0.007066382362947    0.724681508346231  0.0000
  O1     O1        0.620649414502633    0.129173340481163    0.143519783046949  0.0000
  O1     O1        0.881573305539775    0.856024193495776    0.136768334036753  0.0000
  O3     O3        0.384590761248020    0.135689680178128    0.882217501581569  0.0000
  O3     O3        0.133314905396018    0.860110123270458    0.896223164394295  0.0000
  O3     O3        0.412837501877283    0.810380701265576    0.891329231708442  0.0000
  O1     O1        0.098419949438129    0.207593165969223    0.879682505946320  0.0000
  O1     O1        0.584685076912592    0.785726074846089    0.137632242784844  0.0000
  O1     O1        0.913584013201929    0.199931957057807    0.137273470059248  0.0000
  O3     O3        0.516454369294017    0.027428990880063    0.967985577037124  0.0000
  O1     O1        0.983516678223951    0.978898229720200    0.956130998608159  0.0000
  O1     O1        0.160072843856023    0.513840500947735    0.345154281439564  0.0000
  O1     O1        0.342700676580112    0.468836208014083    0.349764918266700  0.0000
  O3     O3        0.845602262622161    0.531415188305289    0.681877487403799  0.0000
  O1     O1        0.653778123122877    0.480269004144112    0.673153368562585  0.0000
  O1     O1        0.238990368542025    0.216939419334145    0.285734113319982  0.0000
  O1     O1        0.265285611441687    0.771762874442578    0.296822109639449  0.0000
  O1     O1        0.762695469105326    0.234143344031166    0.726929425582253  0.0000
  O3     O3        0.743902963238080    0.761697894118464    0.736973357619943  0.0000
  O1     O1        0.118492988506756    0.311535089539006    0.132378561973396  0.0000
  O1     O1        0.386858339609186    0.681348732576001    0.140519688734872  0.0000
  O1     O1        0.883350204689884    0.317020550449392    0.890817800894512  0.0000
  O1     O1        0.620240107350649    0.674173009650461    0.890813493256442  0.0000
  O3     O3        0.859886551812617    0.715763441494940    0.888487001894008  0.0000
  O1     O1        0.638550469540365    0.273536289974776    0.892353870453733  0.0000
  O3     O3        0.142124433624413    0.727218564708800    0.131093860365943  0.0000
  O1     O1        0.369160095603284    0.261184213095389    0.137770856084343  0.0000
  O1     O1        0.657706003009587    0.471525705638883    0.108929650558625  0.0000
  O1     O1        0.841946261105087    0.517135562942562    0.107931506837913  0.0000
  O1     O1        0.357100115428017    0.481682874278021    0.924940411657656  0.0000
  O3     O3        0.159614165417649    0.534413013258201    0.928504058264773  0.0000
  O1     O1        0.764018341387316    0.220721325340624    0.048620288767466  0.0000
  O1     O1        0.735823869938551    0.772415080814546    0.055105216153764  0.0000
  O1     O1        0.244391006258987    0.240712427164124    0.976146408103948  0.0000
  O3     O3        0.263204723881630    0.758218823028366    0.987106209524884  0.0000
