data_c01090.vasp
_audit_creation_method             Generated by GULP
_audit_author_name                 Salvador R. G. Balestra
_symmetry_space_group_name_H-M     'P 1             '
_symmetry_Int_Tables_number        1

loop_
_symmetry_equiv_pos_site_id
_symmetry_equiv_pos_as_xyz
_cell_length_a                       17.5698
_cell_length_b                        7.8202
_cell_length_c                       10.2198
_cell_angle_alpha                   90.1481
_cell_angle_beta                    90.9028
_cell_angle_gamma                   91.1215

loop_
_atom_site_label
_atom_site_type_symbol
_atom_site_fract_x
_atom_site_fract_y
_atom_site_fract_z
_atom_site_charge
  Ge     Ge        0.052090000000021    0.000000000000000    0.372269999999958  0.0000
  Ge     Ge        0.446053801484065    0.053047683786794    0.393105701086993  0.0000
  Ge     Ge        0.942896531945087    0.033965327742876    0.621781378415449  0.0000
  Ge     Ge        0.556426136787319    0.986371273228291    0.149123837490696  0.0000
  Ge     Ge        0.450771000629594    0.049970380940455    0.890609147101749  0.0000
  Ge     Ge        0.043506256904236    0.986685258193355    0.886756966841991  0.0000
  Ge     Ge        0.170021818936738    0.295718099430524    0.274834647433913  0.0000
  Ge     Ge        0.323521472532384    0.769737297527979    0.273891075183205  0.0000
  Ge     Ge        0.845063185787523    0.344410714533367    0.701286910615569  0.0000
  Ge     Ge        0.641713057204860    0.676012184592071    0.715208484634360  0.0000
  Ge     Ge        0.823039522768247    0.750532200878285    0.708669124867684  0.0000
  Ge     Ge        0.664585635779945    0.270892310290040    0.711865803045413  0.0000
  Ge     Ge        0.352877193131227    0.368190398739509    0.279181786748931  0.0000
  Ge     Ge        0.673632476128804    0.270218856012445    0.028486053644228  0.0000
  Ge     Ge        0.831254506424511    0.740044780812729    0.024086491538281  0.0000
  Ge     Ge        0.349496109759136    0.359106106430813    0.959925395744461  0.0000
  Ge     Ge        0.147080173735379    0.676660185254265    0.948231938032681  0.0000
  Ge     Ge        0.324843089151220    0.764705064075379    0.955403262663535  0.0000
  Ge     Ge        0.169700147242535    0.273107463898072    0.959338417226919  0.0000
  Ge     Ge        0.647490808608561    0.670297992032673    0.032855903047407  0.0000
  Si     Si        0.547344263745204    0.986706497412267    0.640779345391572  0.0000
  Si     Si        0.942229953698514    0.036886888712691    0.133528942047501  0.0000
  Si     Si        0.146677508941834    0.688955212329999    0.262017981631491  0.0000
  Si     Si        0.852479990101007    0.342197138163365    0.010831208466398  0.0000
  O1     O1        0.121623465855685    0.154621425829711    0.372716573212148  0.0000
  O1     O1        0.366370716681648    0.928180354059762    0.364281679388952  0.0000
  O1     O1        0.906957327338304    0.235876428225963    0.605561279781121  0.0000
  O3     O3        0.578525685357167    0.796706073094445    0.622910672796014  0.0000
  O1     O1        0.869583884252207    0.886065322557253    0.605325794604504  0.0000
  O3     O3        0.613383329825433    0.127634567226575    0.614012865328659  0.0000
  O3     O3        0.082793460611050    0.798957106020001    0.331190063686564  0.0000
  O1     O1        0.420488263135494    0.260487217907579    0.367722984425014  0.0000
  O1     O1        0.019723124355490    0.990425263918094    0.530643266916359  0.0000
  O3     O3        0.472603554830707    0.022516877096520    0.556042780241109  0.0000
  O3     O3        0.971233679757712    0.053159541106321    0.282571169853712  0.0000
  O1     O1        0.524375283047479    0.997581445621915    0.306389688551745  0.0000
  O1     O1        0.969600329732373    0.023969869641377    0.785658788373883  0.0000
  O3     O3        0.526812075190127    0.008101633196251    0.794128475775741  0.0000
  O1     O1        0.635721879763464    0.114961927054707    0.125189833602706  0.0000
  O3     O3        0.878220115327841    0.887540490092661    0.123307812499795  0.0000
  O1     O1        0.413791449870904    0.249802579561096    0.869273868440726  0.0000
  O1     O1        0.078182606359538    0.783354170392609    0.865649090221289  0.0000
  O1     O1        0.378872602460292    0.900669644087896    0.864444005523026  0.0000
  O1     O1        0.117859687437587    0.130377709666792    0.866704674933955  0.0000
  O1     O1        0.582657407684263    0.779365117083862    0.121237048333538  0.0000
  O2     O2        0.911359488269978    0.221807106230255    0.088243226570553  0.0000
  O1     O1        0.481896037970918    0.046124861879450    0.051224807868290  0.0000
  O3     O3        0.015001509663482    0.991238359113641    0.048917773067464  0.0000
  O3     O3        0.156313854821260    0.504513413010764    0.328993390651727  0.0000
  O1     O1        0.344263565076627    0.572812697939272    0.337651021645439  0.0000
  O1     O1        0.832442871153874    0.546634021257269    0.646307197604194  0.0000
  O1     O1        0.649834873817642    0.474982635361031    0.652458792057493  0.0000
  O1     O1        0.266082615707917    0.262413952211944    0.284333371966363  0.0000
  O3     O3        0.225822762061952    0.797038505601843    0.270972585718478  0.0000
  O1     O1        0.759814504232760    0.231467263121385    0.702634285190007  0.0000
  O1     O1        0.727428368074300    0.786827704371078    0.717230242472483  0.0000
  O1     O1        0.137991373190909    0.260823042739996    0.117840235586526  0.0000
  O1     O1        0.355309426019148    0.782509996511227    0.116168194010734  0.0000
  O3     O3        0.878722228504011    0.363986912215918    0.862203073301754  0.0000
  O1     O1        0.613583195886204    0.655378830634781    0.874287604955258  0.0000
  O1     O1        0.860217331893263    0.765594700984734    0.866116830400105  0.0000
  O1     O1        0.636123569688106    0.259251127574614    0.872132531135191  0.0000
  O3     O3        0.125186054691160    0.649373790280571    0.112210331634916  0.0000
  O1     O1        0.380960269522602    0.381321553608744    0.119530729163260  0.0000
  O1     O1        0.655681191485877    0.467464349495095    0.093909054975651  0.0000
  O3     O3        0.848337597913206    0.530147338640388    0.074195084435897  0.0000
  O1     O1        0.335478797411019    0.558140652992601    0.898676457987369  0.0000
  O1     O1        0.158087036418376    0.474142840717203    0.891778864846215  0.0000
  O3     O3        0.770664342087685    0.247389427710972    0.012959524642694  0.0000
  O1     O1        0.735432660231816    0.771625374853702    0.034001919612574  0.0000
  O1     O1        0.265851757962149    0.238842365153666    0.962024899060512  0.0000
  O1     O1        0.229253445305643    0.800942433157526    0.943052299723823  0.0000
