data_c01001.vasp
_audit_creation_method             Generated by GULP
_audit_author_name                 Salvador R. G. Balestra
_symmetry_space_group_name_H-M     'P 1             '
_symmetry_Int_Tables_number        1

loop_
_symmetry_equiv_pos_site_id
_symmetry_equiv_pos_as_xyz
_cell_length_a                       17.5002
_cell_length_b                        7.8495
_cell_length_c                       10.2307
_cell_angle_alpha                   89.9261
_cell_angle_beta                    89.6718
_cell_angle_gamma                   87.8742

loop_
_atom_site_label
_atom_site_type_symbol
_atom_site_fract_x
_atom_site_fract_y
_atom_site_fract_z
_atom_site_charge
  Ge     Ge        0.052090000000021    0.000000000000000    0.372269999999958  0.0000
  Ge     Ge        0.448241596980659    0.934737124083390    0.342451829980819  0.0000
  Ge     Ge        0.949791406433858    0.936435386030370    0.625869083947940  0.0000
  Ge     Ge        0.547059815861511    0.997778748979466    0.076241491409474  0.0000
  Ge     Ge        0.941618906512243    0.941823914311338    0.130774898803261  0.0000
  Ge     Ge        0.052146457884894    0.997717975175584    0.882378841593417  0.0000
  Ge     Ge        0.144721699440427    0.309324970632318    0.253532113189934  0.0000
  Ge     Ge        0.355886379384033    0.624674769373585    0.256929769786049  0.0000
  Ge     Ge        0.823995590414390    0.225637215865338    0.695291018620114  0.0000
  Ge     Ge        0.667906439320339    0.706281011501406    0.696985945520434  0.0000
  Ge     Ge        0.849696981545421    0.626197513036396    0.690361122011028  0.0000
  Ge     Ge        0.639772399842609    0.306260186976389    0.696393201804454  0.0000
  Ge     Ge        0.175028917445385    0.709348608222387    0.251169854669877  0.0000
  Ge     Ge        0.327243038802327    0.222350603996464    0.254320761636831  0.0000
  Ge     Ge        0.639651938087680    0.318708123830488    0.009792538668288  0.0000
  Ge     Ge        0.848708562797292    0.630168216931590    0.010835700892904  0.0000
  Ge     Ge        0.331499251113741    0.234372483044813    0.938167597808201  0.0000
  Ge     Ge        0.355333024301056    0.635515331517841    0.940001252261643  0.0000
  Ge     Ge        0.146847482802951    0.317496280733040    0.938568749303624  0.0000
  Ge     Ge        0.822979689465312    0.231118908565669    0.010662565421835  0.0000
  Si     Si        0.550716040930750    0.998421839641307    0.587459283885023  0.0000
  Si     Si        0.444526247032972    0.946167861504483    0.824609727055597  0.0000
  Si     Si        0.173898639992453    0.706656432342660    0.941288256747628  0.0000
  Si     Si        0.669334006448667    0.707256273996559    0.009513798808791  0.0000
  O1     O1        0.078214384280376    0.205082921688418    0.343928164599056  0.0000
  O1     O1        0.416835613557240    0.731746475122145    0.356004446312101  0.0000
  O1     O1        0.874730640457270    0.081133350483057    0.601844658292858  0.0000
  O3     O3        0.621294792085774    0.868622697964526    0.614064065353604  0.0000
  O1     O1        0.915833052235183    0.736210447143179    0.603495390204717  0.0000
  O3     O3        0.575519121233176    0.190484727022510    0.607442809800812  0.0000
  O1     O1        0.128439200246848    0.864239040160741    0.339137877992362  0.0000
  O1     O1        0.373601956238763    0.081561195944193    0.356898669122659  0.0000
  O1     O1        0.028296888997140    0.979186785079963    0.535035140268228  0.0000
  O3     O3        0.525099826807528    0.976812964135071    0.438360866476333  0.0000
  O1     O1        0.970926866432771    0.947174330312291    0.290636751871010  0.0000
  O1     O1        0.476563672122244    0.950838604189120    0.180495276462119  0.0000
  O1     O1        0.977013452849770    0.949422109172601    0.788122910734754  0.0000
  O2     O2        0.476761384004594    0.952273865345031    0.675760357351324  0.0000
  O1     O1        0.579597672420766    0.199551111808286    0.102068549641745  0.0000
  O1     O1        0.914451039839578    0.738519019452162    0.096217917728937  0.0000
  O3     O3        0.372777853104177    0.077115835247546    0.840474659110187  0.0000
  O3     O3        0.128612824468873    0.850991502821808    0.860641159257648  0.0000
  O3     O3        0.417746982576686    0.755543270742547    0.851356877858710  0.0000
  O1     O1        0.086428819462265    0.196928717254455    0.849585495820021  0.0000
  O3     O3        0.623778112068595    0.851533340017725    0.090327169532445  0.0000
  O1     O1        0.864208294871655    0.078003735486491    0.108211380022726  0.0000
  O3     O3        0.513275770025078    0.996451830367126    0.917267618296456  0.0000
  O1     O1        0.020133961554938    0.998303092124419    0.041907522815843  0.0000
  O1     O1        0.158042790256017    0.509954375651315    0.313509507966239  0.0000
  O1     O1        0.342133969488829    0.424897393703790    0.313324166705389  0.0000
  O1     O1        0.839017143833265    0.425983042170115    0.631752187282860  0.0000
  O1     O1        0.649270894798180    0.508414562311346    0.634382813509207  0.0000
  O1     O1        0.230803674983530    0.193971349733970    0.253136481811029  0.0000
  O1     O1        0.270686954723435    0.742763898754363    0.253930669988816  0.0000
  O1     O1        0.727294437562632    0.198518376826597    0.695084871213364  0.0000
  O1     O1        0.763440163480597    0.739967643826959    0.685240714305731  0.0000
  O1     O1        0.112691022912639    0.325968638708472    0.095926942842107  0.0000
  O1     O1        0.387830305462070    0.616592121424019    0.097020277382001  0.0000
  O1     O1        0.857779469222472    0.212988269459672    0.853303665216350  0.0000
  O3     O3        0.640973516706741    0.706803350049402    0.859797313301879  0.0000
  O1     O1        0.877497276372921    0.611947975210601    0.851217894746004  0.0000
  O1     O1        0.605726202234341    0.327339600284340    0.852600022325047  0.0000
  O3     O3        0.143452944000590    0.711017319925269    0.090545890322391  0.0000
  O1     O1        0.363015112437859    0.211258957526544    0.096480647308146  0.0000
  O3     O3        0.651826390773536    0.521359662574432    0.069975921192998  0.0000
  O1     O1        0.841725476841286    0.429096128444910    0.072928161433577  0.0000
  O1     O1        0.351985249309782    0.433171651574384    0.878461017205039  0.0000
  O3     O3        0.157144022371902    0.521842249798317    0.879566053285780  0.0000
  O1     O1        0.726453079322561    0.209932853608382    0.002973813990800  0.0000
  O3     O3        0.759485150612456    0.736386588225626    0.014112283571814  0.0000
  O1     O1        0.234928897664440    0.213463132666392    0.940499177236275  0.0000
  O3     O3        0.264550619317399    0.732360714465007    0.940464555592186  0.0000
