data_c01056.vasp
_audit_creation_method             Generated by GULP
_audit_author_name                 Salvador R. G. Balestra
_symmetry_space_group_name_H-M     'P 1             '
_symmetry_Int_Tables_number        1

loop_
_symmetry_equiv_pos_site_id
_symmetry_equiv_pos_as_xyz
_cell_length_a                       17.5610
_cell_length_b                        7.8560
_cell_length_c                       10.1343
_cell_angle_alpha                   91.1639
_cell_angle_beta                    89.3776
_cell_angle_gamma                   88.3318

loop_
_atom_site_label
_atom_site_type_symbol
_atom_site_fract_x
_atom_site_fract_y
_atom_site_fract_z
_atom_site_charge
  Ge     Ge        0.052090000000021    0.000000000000000    0.372269999999958  0.0000
  Ge     Ge        0.435635437399093    0.951887632687450    0.350204923348906  0.0000
  Ge     Ge        0.944963007765305    0.931440741698037    0.619886477669915  0.0000
  Ge     Ge        0.544193195759301    0.007484807615654    0.095082660668307  0.0000
  Ge     Ge        0.941847456758006    0.944586678143696    0.127949884486158  0.0000
  Ge     Ge        0.047783954581818    0.001746712854280    0.874303437832664  0.0000
  Ge     Ge        0.139179451440474    0.320827915697071    0.257709152454077  0.0000
  Ge     Ge        0.820698738973481    0.220079595233954    0.692404340961363  0.0000
  Ge     Ge        0.663024251107198    0.699067098059079    0.696248992129743  0.0000
  Ge     Ge        0.845171940681527    0.620006723076874    0.685227574628736  0.0000
  Ge     Ge        0.637827503165612    0.297528507189416    0.702141873832508  0.0000
  Ge     Ge        0.323466681223490    0.249864662590016    0.269500795579575  0.0000
  Ge     Ge        0.640672159306033    0.317004476578613    0.021871102422985  0.0000
  Ge     Ge        0.848766146062814    0.631195909791086    0.007327828226285  0.0000
  Ge     Ge        0.330595205758317    0.237170943554972    0.949950109438446  0.0000
  Ge     Ge        0.172683421779726    0.713511230994883    0.941756962100998  0.0000
  Ge     Ge        0.353901999474172    0.644394812548817    0.956096825868868  0.0000
  Ge     Ge        0.147813655502822    0.312285051412887    0.937419489873478  0.0000
  Ge     Ge        0.668045306206412    0.716543920891861    0.017069853815021  0.0000
  Ge     Ge        0.821268076538854    0.229110186050797    0.012148531058910  0.0000
  Si     Si        0.547068877805838    0.985078856915532    0.592233005293571  0.0000
  Si     Si        0.447125524516956    0.947320643699671    0.841286098214454  0.0000
  Si     Si        0.342864666330848    0.640517945114805    0.266769000961701  0.0000
  Si     Si        0.165288910219408    0.709892224415766    0.252820877092728  0.0000
  O1     O1        0.076092704941569    0.207212904493912    0.348321024879634  0.0000
  O3     O3        0.390179194379853    0.760077478119488    0.363000272700323  0.0000
  O1     O1        0.871084125385288    0.075596017012745    0.595246908388628  0.0000
  O3     O3        0.617018117904359    0.852189127359050    0.604035323456854  0.0000
  O1     O1        0.910338018901314    0.731388608632633    0.596344929387310  0.0000
  O3     O3        0.573006166743647    0.176750645367552    0.616862083896067  0.0000
  O3     O3        0.130422232938588    0.867099337452171    0.336857181160553  0.0000
  O1     O1        0.369428313223137    0.114104587011219    0.374078370186226  0.0000
  O1     O1        0.026331361210153    0.973230639149853    0.534566109142022  0.0000
  O3     O3        0.515169945610779    0.968517739916976    0.444961149047538  0.0000
  O1     O1        0.971439229004356    0.947297299048492    0.289335237866341  0.0000
  O1     O1        0.467902023340843    0.964998090351075    0.189813761439436  0.0000
  O1     O1        0.970636307166972    0.952842954342572    0.784190208147801  0.0000
  O2     O2        0.476733721909516    0.939603703275598    0.689296196240244  0.0000
  O1     O1        0.578385468014684    0.208775558405320    0.118006620423712  0.0000
  O1     O1        0.917136184151030    0.739656020359076    0.089374562742672  0.0000
  O3     O3        0.376265976778565    0.080580590549451    0.854330232906033  0.0000
  O1     O1        0.121763527550678    0.853835468131358    0.851098382452940  0.0000
  O3     O3        0.423129008581329    0.757640783499256    0.878246509649751  0.0000
  O1     O1        0.085751893540116    0.197546438254065    0.844682898703343  0.0000
  O1     O1        0.618387729570956    0.862630682351647    0.112924359509083  0.0000
  O1     O1        0.865395582127504    0.082767797058265    0.109691241990522  0.0000
  O3     O3        0.516304351931469    0.005424121846477    0.930506975197483  0.0000
  O1     O1        0.018826504342374    0.005457575935533    0.037492236848691  0.0000
  O3     O3        0.141937219349698    0.531431044712911    0.314656445782099  0.0000
  O3     O3        0.339582050996167    0.455640820487705    0.327093141680667  0.0000
  O1     O1        0.834354358680278    0.417994848391674    0.625842142530106  0.0000
  O1     O1        0.646597901885176    0.496528758278899    0.636381582632701  0.0000
  O1     O1        0.227498573004919    0.222339320216860    0.269971296799627  0.0000
  O2     O2        0.257230905868752    0.718682698887268    0.246158106249997  0.0000
  O1     O1        0.724524528174622    0.188989393050832    0.696556322924425  0.0000
  O1     O1        0.759196083392731    0.731406855844651    0.686939279016754  0.0000
  O1     O1        0.112365554049967    0.325153646762367    0.096807542344173  0.0000
  O3     O3        0.379508800654302    0.629595288679010    0.120546416252655  0.0000
  O1     O1        0.854246822224650    0.210398639501962    0.851658953013832  0.0000
  O1     O1        0.634570114923446    0.720272366338660    0.857980997990148  0.0000
  O1     O1        0.875810782762719    0.603666604388924    0.845168282704345  0.0000
  O1     O1        0.608753235932070    0.332277538138751    0.861987146673577  0.0000
  O3     O3        0.136838468463158    0.720825098259986    0.102996082490153  0.0000
  O1     O1        0.358861196513620    0.221490354673756    0.111281397591652  0.0000
  O1     O1        0.654594659266058    0.517385631480599    0.081839436001437  0.0000
  O1     O1        0.837068026162146    0.433053247111252    0.070867174592010  0.0000
  O1     O1        0.349115929876428    0.439365690321711    0.895970562944428  0.0000
  O1     O1        0.160012806022123    0.510900592482223    0.878312603190008  0.0000
  O1     O1        0.725124414070496    0.199399913996295    0.012859002437431  0.0000
  O1     O1        0.764106330098012    0.748835233063488    0.014964352968573  0.0000
  O1     O1        0.234871719888433    0.205501667449042    0.943191489992927  0.0000
  O1     O1        0.268152929666085    0.750915420602554    0.938209409487366  0.0000
