data_c01080.vasp
_audit_creation_method             Generated by GULP
_audit_author_name                 Salvador R. G. Balestra
_symmetry_space_group_name_H-M     'P 1             '
_symmetry_Int_Tables_number        1

loop_
_symmetry_equiv_pos_site_id
_symmetry_equiv_pos_as_xyz
_cell_length_a                       17.5354
_cell_length_b                        7.9229
_cell_length_c                       10.3490
_cell_angle_alpha                   90.7751
_cell_angle_beta                    91.0277
_cell_angle_gamma                   90.9805

loop_
_atom_site_label
_atom_site_type_symbol
_atom_site_fract_x
_atom_site_fract_y
_atom_site_fract_z
_atom_site_charge
  Ge     Ge        0.052090000000021    0.000000000000000    0.372269999999958  0.0000
  Ge     Ge        0.453248533453557    0.046016934194601    0.384159057937976  0.0000
  Ge     Ge        0.946796026244697    0.043848445975147    0.623909507503250  0.0000
  Ge     Ge        0.566183913671770    0.034647287771997    0.145304895522371  0.0000
  Ge     Ge        0.453665392113625    0.051404841441241    0.891122438758590  0.0000
  Ge     Ge        0.047521766475650    0.005529068341832    0.886771883413807  0.0000
  Ge     Ge        0.174291032560020    0.289182328799823    0.265232021374768  0.0000
  Ge     Ge        0.331181953259476    0.758291270754941    0.273012462643027  0.0000
  Ge     Ge        0.842292190021081    0.342765808238747    0.712647233819893  0.0000
  Ge     Ge        0.653914576325941    0.729698114780560    0.716918207636178  0.0000
  Ge     Ge        0.836111477940845    0.748184820356220    0.706001707752638  0.0000
  Ge     Ge        0.658370566233696    0.320377550450076    0.726731141629898  0.0000
  Ge     Ge        0.148259147803817    0.687176144625603    0.268775128525531  0.0000
  Ge     Ge        0.356881386060704    0.358404500421204    0.269302703554642  0.0000
  Ge     Ge        0.664008428308604    0.349071036390457    0.038665254540444  0.0000
  Ge     Ge        0.354213424705752    0.365923765604635    0.953465208013805  0.0000
  Ge     Ge        0.148127747029662    0.692240985337453    0.954005498793424  0.0000
  Ge     Ge        0.330400995267154    0.765431302604498    0.959292484855908  0.0000
  Ge     Ge        0.172531673494506    0.293853928622203    0.950276450774833  0.0000
  Ge     Ge        0.852942270105870    0.362687390576341    0.024447020177597  0.0000
  Si     Si        0.551593910473312    0.022765686629581    0.639337344647441  0.0000
  Si     Si        0.944511495160452    0.050230415619053    0.131368935672664  0.0000
  Si     Si        0.846473204932295    0.750625551631200    0.007391025123736  0.0000
  Si     Si        0.664178952867961    0.738025537662750    0.018089665350551  0.0000
  O1     O1        0.126081891102418    0.137832046942279    0.348112344068622  0.0000
  O1     O1        0.378455099927638    0.906706459302125    0.366644957937696  0.0000
  O1     O1        0.894699973872676    0.224180182239518    0.608740065351374  0.0000
  O3     O3        0.595715409501903    0.848564727847713    0.618243346514313  0.0000
  O1     O1        0.888431171680186    0.868723307328271    0.603923519327616  0.0000
  O3     O3        0.607135069287971    0.184988915973339    0.624580485005263  0.0000
  O1     O1        0.082861782827539    0.797788277200481    0.355804325529636  0.0000
  O1     O1        0.424845762761244    0.246911565409347    0.350635664690453  0.0000
  O1     O1        0.024223876678580    0.034554080272998    0.529096778937072  0.0000
  O3     O3        0.479037861797083    0.036965580854902    0.546940157102398  0.0000
  O3     O3        0.970158541026249    0.032138798168235    0.279465830132145  0.0000
  O1     O1        0.532254244210901    0.996770602080147    0.296612649977194  0.0000
  O1     O1        0.974271754403423    0.045410468991369    0.785332383220822  0.0000
  O3     O3        0.527346119553823    0.019719470076279    0.789072774200938  0.0000
  O1     O1        0.613477890360705    0.225953959080846    0.141503808847386  0.0000
  O2     O2        0.879509517846609    0.909585314232340    0.090465211425145  0.0000
  O1     O1        0.418869471944651    0.250768882526685    0.869662291116089  0.0000
  O1     O1        0.083714011847444    0.806771554595272    0.867051680101676  0.0000
  O1     O1        0.379798231053270    0.907242305008372    0.869402149096247  0.0000
  O1     O1        0.120786552497680    0.149137441385159    0.861918921396760  0.0000
  O3     O3        0.633761067768527    0.884957285070276    0.107512735966499  0.0000
  O3     O3        0.910405143719407    0.235655033107712    0.116735623238742  0.0000
  O1     O1        0.486938798320779    0.027752332304302    0.047134280119548  0.0000
  O3     O3        0.019184339624231    0.025014602782063    0.046883839573989  0.0000
  O1     O1        0.158782806626935    0.488186776952908    0.328708565854750  0.0000
  O1     O1        0.346972685819458    0.558595292512266    0.331217361108835  0.0000
  O1     O1        0.837273165048613    0.542669555208061    0.653643690590831  0.0000
  O1     O1        0.650962073689538    0.522337396910494    0.669056651062681  0.0000
  O1     O1        0.270479824267845    0.251718871347882    0.272961818834413  0.0000
  O1     O1        0.234992221913932    0.792844709108367    0.274206046014358  0.0000
  O1     O1        0.751678473636078    0.260619356264666    0.727123284294831  0.0000
  O1     O1        0.743851921618664    0.814432001681711    0.704558059148170  0.0000
  O1     O1        0.143050662178534    0.288455397144295    0.107822604494779  0.0000
  O1     O1        0.362850772441386    0.772512608233757    0.117333823502479  0.0000
  O1     O1        0.880549649566218    0.347090788739294    0.867445929624090  0.0000
  O3     O3        0.624521999900911    0.739014807504177    0.876955910551082  0.0000
  O3     O3        0.876639557928182    0.760385936912938    0.862161327064932  0.0000
  O1     O1        0.628528301189641    0.313134142441596    0.884316266213952  0.0000
  O1     O1        0.117975182158438    0.674631526372676    0.110481889762903  0.0000
  O1     O1        0.384624653936184    0.378231893162776    0.112276111241503  0.0000
  O3     O3        0.649664884750570    0.558147754966019    0.083047780638753  0.0000
  O3     O3        0.867766236549839    0.574310816359198    0.071470480278109  0.0000
  O1     O1        0.343913557845853    0.564766890022729    0.896054047378366  0.0000
  O1     O1        0.158637408803629    0.494225613823628    0.890492154409915  0.0000
  O1     O1        0.759548102157615    0.305940968270835    0.043979994658247  0.0000
  O2     O2        0.754732040505031    0.757172605574358    0.992039609796384  0.0000
  O1     O1        0.268321792417571    0.256371087732764    0.948426754677703  0.0000
  O1     O1        0.234356248487257    0.801271843035030    0.957269489439910  0.0000
