data_c01082.vasp
_audit_creation_method             Generated by GULP
_audit_author_name                 Salvador R. G. Balestra
_symmetry_space_group_name_H-M     'P 1             '
_symmetry_Int_Tables_number        1

loop_
_symmetry_equiv_pos_site_id
_symmetry_equiv_pos_as_xyz
_cell_length_a                       17.7036
_cell_length_b                        7.8852
_cell_length_c                       10.3630
_cell_angle_alpha                   89.0418
_cell_angle_beta                    91.4962
_cell_angle_gamma                   89.3704

loop_
_atom_site_label
_atom_site_type_symbol
_atom_site_fract_x
_atom_site_fract_y
_atom_site_fract_z
_atom_site_charge
  Ge     Ge        0.052090000000021    0.000000000000000    0.372269999999958  0.0000
  Ge     Ge        0.448210278333840    0.968834480223097    0.380067255449175  0.0000
  Ge     Ge        0.942707077725252    0.992905109743726    0.620033933067651  0.0000
  Ge     Ge        0.561033668088676    0.965505609720815    0.141742127584567  0.0000
  Ge     Ge        0.450853153003570    0.972277866977882    0.885633564568192  0.0000
  Ge     Ge        0.046309639889070    0.998202122318296    0.882129293447035  0.0000
  Ge     Ge        0.153540600335674    0.308445804989778    0.268703620141888  0.0000
  Ge     Ge        0.353119227241158    0.653884523740658    0.268506920382350  0.0000
  Ge     Ge        0.841317843535605    0.302636271093280    0.697313797685893  0.0000
  Ge     Ge        0.645727700399545    0.669729046127630    0.715160726167122  0.0000
  Ge     Ge        0.827453215159872    0.708462517553647    0.703909894356280  0.0000
  Ge     Ge        0.660472008251836    0.261956666679005    0.707423949384289  0.0000
  Ge     Ge        0.171346330959236    0.709206915739292    0.265404554806935  0.0000
  Ge     Ge        0.673011001426938    0.249623718823306    0.019071134296647  0.0000
  Ge     Ge        0.838341280876198    0.688457226837290    0.015199341563799  0.0000
  Ge     Ge        0.327944383259852    0.253342204150647    0.956653966269416  0.0000
  Ge     Ge        0.170266992523096    0.713828240475872    0.950693977345022  0.0000
  Ge     Ge        0.351740275510897    0.657793943615641    0.955979618676230  0.0000
  Ge     Ge        0.147563329498318    0.310968209169764    0.953849596657904  0.0000
  Ge     Ge        0.654546887226778    0.652019805827691    0.028917824018392  0.0000
  Si     Si        0.547252261700941    0.981376562074613    0.633628667781250  0.0000
  Si     Si        0.945788825290423    0.979991176142253    0.124329114654445  0.0000
  Si     Si        0.331689086881194    0.255957307340001    0.263804411342500  0.0000
  Si     Si        0.852080841872989    0.290901259597936    0.002184010176816  0.0000
  O1     O1        0.093329322870888    0.194170005887578    0.361136093950194  0.0000
  O1     O1        0.415112486419668    0.766994361173278    0.361864334737962  0.0000
  O1     O1        0.900636497814347    0.189730698018987    0.602864420367008  0.0000
  O3     O3        0.585867138507361    0.797120851985783    0.620024056861142  0.0000
  O1     O1        0.874559522424676    0.840581337070051    0.602473247070195  0.0000
  O3     O3        0.607686803701978    0.129066657460001    0.610370419040579  0.0000
  O1     O1        0.120620176816773    0.850005735145634    0.352275486294535  0.0000
  O3     O3        0.377521926873851    0.116489318308330    0.348362674800094  0.0000
  O1     O1        0.018633337625819    0.971325720389981    0.525368879223464  0.0000
  O3     O3        0.474578067454836    0.997557900739074    0.540622038324073  0.0000
  O3     O3        0.972319178167883    0.986454915765710    0.272793502987749  0.0000
  O1     O1        0.528225437688527    0.996570108197776    0.293551750792072  0.0000
  O1     O1        0.972608136129207    0.967993704767927    0.779446613094788  0.0000
  O3     O3        0.522725387540112    0.003704685406070    0.781402494308039  0.0000
  O1     O1        0.636230655741601    0.097122397171565    0.115053842446146  0.0000
  O3     O3        0.889033538238900    0.823446275427612    0.112453307796851  0.0000
  O1     O1        0.377591598688520    0.116676175034567    0.865736507657054  0.0000
  O1     O1        0.119398279688446    0.856167233877880    0.858418881965935  0.0000
  O1     O1        0.414569196705759    0.772803841640238    0.868403854863230  0.0000
  O1     O1        0.082314121620528    0.198566687916610    0.867017786023162  0.0000
  O1     O1        0.594952128058668    0.762524757535029    0.124092959766531  0.0000
  O2     O2        0.907466603832244    0.160000646388386    0.080110923478610  0.0000
  O1     O1        0.486137689104505    0.007987936459044    0.038454980773309  0.0000
  O3     O3        0.019092197512679    0.954038829977220    0.039596777789089  0.0000
  O1     O1        0.158826075217319    0.508027297196854    0.328122667330306  0.0000
  O3     O3        0.345513553968674    0.444034218517057    0.318905332084728  0.0000
  O1     O1        0.833226499552489    0.506916938918397    0.643020516530819  0.0000
  O1     O1        0.648498003247333    0.469423520419009    0.654746858664537  0.0000
  O3     O3        0.243093470862010    0.215457778804677    0.267331405975120  0.0000
  O1     O1        0.266118663589671    0.751283053518437    0.273366147994728  0.0000
  O1     O1        0.754239668528311    0.208522642247715    0.696857482742478  0.0000
  O1     O1        0.733652302160720    0.760224026324414    0.714544323732668  0.0000
  O1     O1        0.120092943850211    0.312039845634949    0.111957822748729  0.0000
  O1     O1        0.384964855454180    0.660676871631623    0.113897509194996  0.0000
  O3     O3        0.878145808157732    0.305407557402620    0.855173576307567  0.0000
  O1     O1        0.617943099650646    0.662035357619276    0.872880399680039  0.0000
  O1     O1        0.865422516874215    0.711526356080707    0.859081327961538  0.0000
  O1     O1        0.633978404031831    0.249009771219534    0.865698517008506  0.0000
  O1     O1        0.140829283892736    0.712790006644711    0.107694310130199  0.0000
  O3     O3        0.359047266824766    0.251490327392945    0.117297974367554  0.0000
  O1     O1        0.658326566592685    0.445841891314341    0.083309688623044  0.0000
  O3     O3        0.853235765162866    0.476598641100529    0.063710542871151  0.0000
  O1     O1        0.342367207902039    0.457393045998101    0.899903517747423  0.0000
  O1     O1        0.156708874678785    0.511587757408527    0.893089001896817  0.0000
  O3     O3        0.768699307489968    0.214468926184062    0.002312755248941  0.0000
  O1     O1        0.744252951924729    0.733839175845726    0.028590537526230  0.0000
  O1     O1        0.234043387825970    0.207938557022856    0.949303446147721  0.0000
  O1     O1        0.264754277783059    0.758011170608307    0.951172432633666  0.0000
