data_c01060.vasp
_audit_creation_method             Generated by GULP
_audit_author_name                 Salvador R. G. Balestra
_symmetry_space_group_name_H-M     'P 1             '
_symmetry_Int_Tables_number        1

loop_
_symmetry_equiv_pos_site_id
_symmetry_equiv_pos_as_xyz
_cell_length_a                       17.4648
_cell_length_b                        7.8330
_cell_length_c                       10.3258
_cell_angle_alpha                   89.8843
_cell_angle_beta                    91.1301
_cell_angle_gamma                   92.0075

loop_
_atom_site_label
_atom_site_type_symbol
_atom_site_fract_x
_atom_site_fract_y
_atom_site_fract_z
_atom_site_charge
  Ge     Ge        0.052090000000021    0.000000000000000    0.372269999999958  0.0000
  Ge     Ge        0.446724582797440    0.056313417150911    0.405088064896566  0.0000
  Ge     Ge        0.947038214293838    0.065065283857236    0.621960158040401  0.0000
  Ge     Ge        0.550831177184719    0.998096742462560    0.154183836800140  0.0000
  Ge     Ge        0.954576126509442    0.065649738250795    0.108069965341388  0.0000
  Ge     Ge        0.173858503794624    0.284966969318204    0.288660609312236  0.0000
  Ge     Ge        0.325564522392844    0.769814991065934    0.288840006093184  0.0000
  Ge     Ge        0.848551535638141    0.372754575175759    0.727695218728944  0.0000
  Ge     Ge        0.640098033943596    0.691986845859827    0.728192299887002  0.0000
  Ge     Ge        0.822766109124109    0.773663901968463    0.728992261290482  0.0000
  Ge     Ge        0.665157625363731    0.291393040031719    0.731096720360845  0.0000
  Ge     Ge        0.142550944910590    0.686056889748864    0.288216435669412  0.0000
  Ge     Ge        0.355134035342956    0.369053981067602    0.287660600709252  0.0000
  Ge     Ge        0.672786513382944    0.287171743578416    0.046589305397192  0.0000
  Ge     Ge        0.825755500967083    0.778175063771396    0.044864471134043  0.0000
  Ge     Ge        0.348291899259154    0.367333357248395    0.971846538912406  0.0000
  Ge     Ge        0.143874622688515    0.695978417289775    0.978988898307436  0.0000
  Ge     Ge        0.330260945705968    0.766407152241714    0.977909651465037  0.0000
  Ge     Ge        0.644424204296917    0.687548671132572    0.044162514116905  0.0000
  Ge     Ge        0.853957649398268    0.377949389562083    0.044047441198278  0.0000
  Si     Si        0.543763365927355    0.004484944601644    0.662243240116470  0.0000
  Si     Si        0.445314076122017    0.061946986077970    0.905287005714388  0.0000
  Si     Si        0.055146634129186    0.009215534640322    0.863118787166031  0.0000
  Si     Si        0.167429503480489    0.298909899258165    0.979917645953177  0.0000
  O1     O1        0.128352606203733    0.144147030599489    0.388928304041698  0.0000
  O1     O1        0.367484587764292    0.924025331877652    0.384988924801325  0.0000
  O1     O1        0.916030056401819    0.267030548159451    0.643438627756316  0.0000
  O3     O3        0.572779173493227    0.813506935847555    0.647706567285226  0.0000
  O1     O1        0.871506201781284    0.923787982763541    0.639997321143055  0.0000
  O3     O3        0.614086066668537    0.138736926777144    0.640911497982853  0.0000
  O1     O1        0.083031841545493    0.795505788865946    0.386720797018989  0.0000
  O1     O1        0.424102826244358    0.263410189064762    0.372093335147405  0.0000
  O1     O1        0.976381248698044    0.044175248351678    0.464294970640410  0.0000
  O3     O3        0.474341673402174    0.040428507479336    0.566175665811866  0.0000
  O1     O1        0.028239874389501    0.026356021561291    0.209573869944239  0.0000
  O1     O1        0.520228457476724    0.996634873490565    0.310340633545383  0.0000
  O3     O3        0.028585705803338    0.023520328311724    0.714106107694525  0.0000
  O2     O2        0.515169607561050    0.030512375627852    0.810198404280886  0.0000
  O1     O1        0.628491922247676    0.136207692410949    0.140936684549734  0.0000
  O1     O1        0.878001304923692    0.924624599226173    0.133460562109514  0.0000
  O3     O3        0.407948487743333    0.244565176249228    0.882016018798592  0.0000
  O3     O3        0.084435526776211    0.818519285591503    0.884072931850150  0.0000
  O3     O3        0.378776861565180    0.916906191546025    0.885982116489988  0.0000
  O2     O2        0.122139797240651    0.151057125966474    0.897763294447741  0.0000
  O1     O1        0.575430527389002    0.792570283529788    0.123212934773346  0.0000
  O1     O1        0.922497422598224    0.268864038238521    0.126982795599091  0.0000
  O3     O3        0.476980557840170    0.061126458354320    0.052675786620707  0.0000
  O3     O3        0.981125764173209    0.042224149331538    0.947478717730218  0.0000
  O1     O1        0.156358705931013    0.486777944037786    0.346513878625775  0.0000
  O1     O1        0.342016459027277    0.568254182612347    0.349172776244718  0.0000
  O1     O1        0.836262890734822    0.573405593044791    0.666122390171381  0.0000
  O1     O1        0.647913275749655    0.490869605294550    0.666294388132249  0.0000
  O1     O1        0.269794313245511    0.251413366945115    0.291964157851089  0.0000
  O1     O1        0.229141553494076    0.798226364111929    0.278877686237566  0.0000
  O1     O1        0.761799875323325    0.260104955927495    0.723244822788176  0.0000
  O1     O1        0.725992169884048    0.805544798596258    0.724198554602771  0.0000
  O3     O3        0.140941670534057    0.286593851692567    0.127954632375477  0.0000
  O1     O1        0.363156088856876    0.781903537059440    0.135619690276778  0.0000
  O1     O1        0.879940777247722    0.396856726239422    0.884761307967747  0.0000
  O1     O1        0.614861039057685    0.661430425529053    0.885937319093016  0.0000
  O1     O1        0.854678290789183    0.785531496968698    0.886521727273318  0.0000
  O1     O1        0.638252021357276    0.277878673807147    0.889709033077857  0.0000
  O1     O1        0.106940435149677    0.683527167018987    0.130862014510648  0.0000
  O1     O1        0.381039491178192    0.388530818751184    0.128591255267632  0.0000
  O1     O1        0.658252383580292    0.488753223213114    0.107494699131826  0.0000
  O1     O1        0.841673184222158    0.576060546754213    0.106125778400100  0.0000
  O1     O1        0.345246022555795    0.569209983794987    0.910778456701073  0.0000
  O3     O3        0.150221116409746    0.486508624954963    0.923724161867136  0.0000
  O1     O1        0.769418283917896    0.257269358949889    0.045692268612498  0.0000
  O1     O1        0.729044105702150    0.808287277535097    0.049217421118136  0.0000
  O3     O3        0.257624411751651    0.269120820568731    0.974051933810316  0.0000
  O1     O1        0.233310998517212    0.792412884753363    0.978600001940130  0.0000
