data_c01042.vasp
_audit_creation_method             Generated by GULP
_audit_author_name                 Salvador R. G. Balestra
_symmetry_space_group_name_H-M     'P 1             '
_symmetry_Int_Tables_number        1

loop_
_symmetry_equiv_pos_site_id
_symmetry_equiv_pos_as_xyz
_cell_length_a                       17.5976
_cell_length_b                        7.8292
_cell_length_c                       10.1754
_cell_angle_alpha                   89.5983
_cell_angle_beta                    89.2846
_cell_angle_gamma                   88.4931

loop_
_atom_site_label
_atom_site_type_symbol
_atom_site_fract_x
_atom_site_fract_y
_atom_site_fract_z
_atom_site_charge
  Ge     Ge        0.052090000000021    0.000000000000000    0.372269999999958  0.0000
  Ge     Ge        0.446083884659151    0.950985223351434    0.357545732291948  0.0000
  Ge     Ge        0.944861939808328    0.961563053935354    0.629066004290864  0.0000
  Ge     Ge        0.549504044955001    0.017244007363670    0.096628074492044  0.0000
  Ge     Ge        0.949396799048860    0.956012144256280    0.121069789338756  0.0000
  Ge     Ge        0.056959967530062    0.013261665929320    0.872966388920804  0.0000
  Ge     Ge        0.146009632304447    0.313667635979910    0.253026176098617  0.0000
  Ge     Ge        0.356107076739767    0.636333194469761    0.270251059598845  0.0000
  Ge     Ge        0.825274084361915    0.258664525381924    0.693269430811513  0.0000
  Ge     Ge        0.668050508035520    0.730880418848272    0.702886665837201  0.0000
  Ge     Ge        0.642158248784191    0.331002697331290    0.702481051730331  0.0000
  Ge     Ge        0.174472723263280    0.715291920274534    0.258340341802134  0.0000
  Ge     Ge        0.325495901175659    0.234062106865289    0.267534017427313  0.0000
  Ge     Ge        0.647231662400638    0.331125068603710    0.021319366257907  0.0000
  Ge     Ge        0.853457266433273    0.647772186584400    0.005957262649941  0.0000
  Ge     Ge        0.178381590157193    0.719095168686230    0.941941623226703  0.0000
  Ge     Ge        0.361509100944398    0.647366367452145    0.956188345562941  0.0000
  Ge     Ge        0.160160468372531    0.320563460275996    0.931075756129803  0.0000
  Ge     Ge        0.675274717466710    0.732385170873467    0.025638826746252  0.0000
  Ge     Ge        0.827905726879501    0.245093589664575    0.010365523335927  0.0000
  Si     Si        0.551402155666525    0.021903808125785    0.598715880651798  0.0000
  Si     Si        0.451320626332928    0.962087858356448    0.844732473806580  0.0000
  Si     Si        0.844451685619714    0.650406575927102    0.689203710679613  0.0000
  Si     Si        0.337378496073899    0.248515269289353    0.953887541821292  0.0000
  O1     O1        0.075515304765805    0.206053440908423    0.332099840239524  0.0000
  O1     O1        0.414584407578438    0.747179313582792    0.372188376333788  0.0000
  O1     O1        0.876755824662206    0.117069267180654    0.597723623120022  0.0000
  O3     O3        0.622937651659914    0.894843403548076    0.619461621584993  0.0000
  O3     O3        0.906437246828773    0.760691233588032    0.612697232601086  0.0000
  O3     O3        0.576557990234154    0.214624500011606    0.617456297600931  0.0000
  O1     O1        0.129579980610875    0.865850471930204    0.353762439759421  0.0000
  O1     O1        0.370641414093166    0.093345998148828    0.370481029252931  0.0000
  O1     O1        0.024010198660397    0.988255621267433    0.534471356968635  0.0000
  O3     O3        0.522842817751368    0.997722827252747    0.451196486602978  0.0000
  O1     O1        0.975167261354226    0.940371308189358    0.282929317293289  0.0000
  O1     O1        0.474693567680759    0.977887643445163    0.195382706786256  0.0000
  O1     O1        0.976547835447869    0.976456795216887    0.788550236443297  0.0000
  O2     O2        0.479185158964241    0.976919902323747    0.692647199666800  0.0000
  O1     O1        0.583390984032022    0.219295997965296    0.113906982914063  0.0000
  O1     O1        0.927343885053789    0.753535759710965    0.069532688669866  0.0000
  O2     O2        0.384405545832413    0.103248363159884    0.873102602695389  0.0000
  O1     O1        0.128313183231484    0.862175170762932    0.848174854855194  0.0000
  O3     O3        0.422726697185080    0.770396517278142    0.863460182471841  0.0000
  O1     O1        0.099427813995779    0.205426904170067    0.840089696625723  0.0000
  O1     O1        0.624311024832178    0.873559158397819    0.119768754025795  0.0000
  O1     O1        0.873045576781121    0.094659300651223    0.105777381208379  0.0000
  O3     O3        0.523126622883035    0.996698807568412    0.933130766258179  0.0000
  O1     O1        0.027987437791364    0.022177738776913    0.035782772923911  0.0000
  O1     O1        0.157227384895014    0.513013203341743    0.317905043503636  0.0000
  O1     O1        0.341637685694277    0.435787979125017    0.327614456498579  0.0000
  O3     O3        0.836477676999525    0.463743180652100    0.628215628018489  0.0000
  O1     O1        0.647096155106084    0.534865713418518    0.639414816095654  0.0000
  O1     O1        0.230516435613040    0.197297730617350    0.267069156259195  0.0000
  O1     O1        0.270455460370555    0.746624506210934    0.257488274633227  0.0000
  O1     O1        0.729444411187247    0.226719908232481    0.693756947551263  0.0000
  O3     O3        0.765252684435247    0.758323889209418    0.687481447528371  0.0000
  O1     O1        0.126621254435431    0.341304516129494    0.089798753266905  0.0000
  O1     O1        0.394637318527448    0.634620502819464    0.113170110537361  0.0000
  O1     O1        0.859277253975906    0.229089042854542    0.849805634399837  0.0000
  O1     O1        0.644458616148806    0.739530376703627    0.865588525509636  0.0000
  O3     O3        0.867701688629320    0.614869275385806    0.839575887169583  0.0000
  O1     O1        0.614351542951014    0.351868949350689    0.863044906070817  0.0000
  O1     O1        0.141928008870739    0.732389163374653    0.099683510722715  0.0000
  O3     O3        0.360236072088322    0.235505566326289    0.106254343146860  0.0000
  O1     O1        0.661713476670643    0.527698125015752    0.085133837316946  0.0000
  O1     O1        0.845390089084917    0.446207423927720    0.070170876707225  0.0000
  O3     O3        0.354882577410028    0.438464360386994    0.899994008675844  0.0000
  O1     O1        0.167925524599751    0.522022696805878    0.870640843287390  0.0000
  O1     O1        0.731792816868480    0.215056259749010    0.012400985461235  0.0000
  O1     O1        0.771044512094635    0.767549534630847    0.030227996508510  0.0000
  O3     O3        0.248501866478697    0.215129837993374    0.939265395424693  0.0000
  O1     O1        0.274328377206417    0.748803842593768    0.950731089398271  0.0000
