data_c01077.vasp
_audit_creation_method             Generated by GULP
_audit_author_name                 Salvador R. G. Balestra
_symmetry_space_group_name_H-M     'P 1             '
_symmetry_Int_Tables_number        1

loop_
_symmetry_equiv_pos_site_id
_symmetry_equiv_pos_as_xyz
_cell_length_a                       17.5444
_cell_length_b                        7.8072
_cell_length_c                       10.3081
_cell_angle_alpha                   90.2046
_cell_angle_beta                    90.8491
_cell_angle_gamma                   91.2578

loop_
_atom_site_label
_atom_site_type_symbol
_atom_site_fract_x
_atom_site_fract_y
_atom_site_fract_z
_atom_site_charge
  Ge     Ge        0.052090000000021    0.000000000000000    0.372269999999958  0.0000
  Ge     Ge        0.455302387944474    0.050543050508290    0.421447791959677  0.0000
  Ge     Ge        0.946792672756491    0.056508095986010    0.621914480703396  0.0000
  Ge     Ge        0.565437803224576    0.012740884219471    0.180097119375693  0.0000
  Ge     Ge        0.452197314141645    0.064078999656963    0.930886635213332  0.0000
  Ge     Ge        0.057623439123585    0.999145506623995    0.870841931026517  0.0000
  Ge     Ge        0.179035394680634    0.279302974426103    0.304270416317309  0.0000
  Ge     Ge        0.331196719337276    0.767741013829077    0.309173071225942  0.0000
  Ge     Ge        0.851684909878395    0.368398757349771    0.742169528741916  0.0000
  Ge     Ge        0.645757965085286    0.697489481670935    0.749282752049364  0.0000
  Ge     Ge        0.826591609034509    0.771317722188134    0.733719220356301  0.0000
  Ge     Ge        0.669799021804131    0.290156087240038    0.753669498732917  0.0000
  Ge     Ge        0.150223308894466    0.682561422792746    0.305671704186514  0.0000
  Ge     Ge        0.359192577591807    0.362763746019025    0.303799552915313  0.0000
  Ge     Ge        0.679412516217603    0.309700706225837    0.067671257977693  0.0000
  Ge     Ge        0.838281397515211    0.783246149476999    0.046902112553321  0.0000
  Ge     Ge        0.149842727797774    0.685347751015802    0.989334530977944  0.0000
  Ge     Ge        0.331242088618253    0.768653860888039    0.995644624121137  0.0000
  Ge     Ge        0.178357243608737    0.283811424148898    0.988451215295594  0.0000
  Ge     Ge        0.860879160105451    0.382593386419096    0.059119570825600  0.0000
  Si     Si        0.550536342202894    0.009287021022190    0.679346894383352  0.0000
  Si     Si        0.957502039208686    0.072280120878690    0.116486305313641  0.0000
  Si     Si        0.354682980949738    0.373022964803392    0.994739330069190  0.0000
  Si     Si        0.659683332843001    0.709125850939496    0.055796746948226  0.0000
  O1     O1        0.128340104970683    0.138551391256516    0.397534588364366  0.0000
  O1     O1        0.378255059987163    0.914405213520639    0.405893998854167  0.0000
  O1     O1        0.918141640030251    0.259519622277626    0.657059948277865  0.0000
  O3     O3        0.578025530168712    0.814545611556357    0.666526604098255  0.0000
  O1     O1        0.871455710321916    0.915863821989085    0.635913879011110  0.0000
  O3     O3        0.621016591742925    0.141832111051717    0.657615911048459  0.0000
  O1     O1        0.083754225481981    0.795078434013537    0.390022597378755  0.0000
  O1     O1        0.430376895301885    0.255424487544991    0.380645501479129  0.0000
  O1     O1        0.975801862087228    0.047096747999674    0.463151648617454  0.0000
  O3     O3        0.480621866161554    0.046474507015229    0.585249008030323  0.0000
  O3     O3        0.026718428855296    0.024147925662758    0.208519555982134  0.0000
  O1     O1        0.533411993016352    0.992138834503847    0.335928907360917  0.0000
  O1     O1        0.025250290206357    0.003111471920018    0.713471240905774  0.0000
  O3     O3        0.526717672307668    0.040797354285978    0.828259668578156  0.0000
  O1     O1        0.632063673851318    0.176545138505545    0.171394802895052  0.0000
  O3     O3        0.886281597421120    0.939824737814194    0.134684663976607  0.0000
  O3     O3        0.414575788880102    0.267124084034291    0.913106824525339  0.0000
  O1     O1        0.081901961546198    0.792336775752082    0.903669340181146  0.0000
  O1     O1        0.382992685308152    0.908186800462263    0.903151423120475  0.0000
  O1     O1        0.136494267901804    0.131231913687491    0.890795777326196  0.0000
  O3     O3        0.603108314923337    0.816648312755377    0.141528790645071  0.0000
  O3     O3        0.928181061017181    0.263554929713116    0.141755580806304  0.0000
  O1     O1        0.486264882904833    0.052518843418505    0.087297988918062  0.0000
  O3     O3        0.983853209909550    0.065353708056558    0.967013685874143  0.0000
  O1     O1        0.164152871114460    0.482595712370325    0.365311384097378  0.0000
  O1     O1        0.347253271291204    0.563822536127073    0.365983094528452  0.0000
  O1     O1        0.837842918065768    0.566455566731553    0.675861970216773  0.0000
  O1     O1        0.651592644721649    0.492565082019836    0.693737795311088  0.0000
  O1     O1        0.275331336343888    0.244803927973251    0.313027678122875  0.0000
  O1     O1        0.234838485222539    0.799765618321184    0.308354695733296  0.0000
  O1     O1        0.765929021483997    0.256291599191975    0.745395821174821  0.0000
  O1     O1        0.730848366225790    0.807770637728199    0.736792138047669  0.0000
  O1     O1        0.147776700047825    0.265014877170304    0.145209054300685  0.0000
  O1     O1        0.363172043419655    0.792082472982459    0.153109382865513  0.0000
  O1     O1        0.883326262807502    0.402201465744806    0.898278009508879  0.0000
  O3     O3        0.623781210793738    0.683760781154537    0.912466827420542  0.0000
  O1     O1        0.865544828437038    0.792026779378864    0.887666397884934  0.0000
  O1     O1        0.643366361057724    0.278146737372337    0.913708968524493  0.0000
  O1     O1        0.121197639890624    0.661664574830949    0.146520963234414  0.0000
  O3     O3        0.382896885434372    0.396096003090858    0.143313120575516  0.0000
  O3     O3        0.672069131311801    0.522641606002179    0.116180716719327  0.0000
  O1     O1        0.857829561158367    0.588111074419600    0.116474983083164  0.0000
  O3     O3        0.342416737690216    0.560358603528564    0.937291462065135  0.0000
  O1     O1        0.159147779208971    0.483197778678598    0.927235589983165  0.0000
  O1     O1        0.775222782471475    0.273129245338594    0.069457813995526  0.0000
  O3     O3        0.740575442259648    0.811133512331065    0.047053975113724  0.0000
  O3     O3        0.276254639550856    0.260984464321730    0.995134247430714  0.0000
  O1     O1        0.234980370659419    0.800782395198200    0.987526827326777  0.0000
