data_c01063.vasp
_audit_creation_method             Generated by GULP
_audit_author_name                 Salvador R. G. Balestra
_symmetry_space_group_name_H-M     'P 1             '
_symmetry_Int_Tables_number        1

loop_
_symmetry_equiv_pos_site_id
_symmetry_equiv_pos_as_xyz
_cell_length_a                       17.4668
_cell_length_b                        7.8183
_cell_length_c                       10.3172
_cell_angle_alpha                   90.5994
_cell_angle_beta                    90.4119
_cell_angle_gamma                   91.4843

loop_
_atom_site_label
_atom_site_type_symbol
_atom_site_fract_x
_atom_site_fract_y
_atom_site_fract_z
_atom_site_charge
  Ge     Ge        0.052090000000021    0.000000000000000    0.372269999999958  0.0000
  Ge     Ge        0.441510395717124    0.055923365863139    0.378351269595663  0.0000
  Ge     Ge        0.945831394706675    0.037893796765250    0.624471631133405  0.0000
  Ge     Ge        0.546647881067374    0.988691539287190    0.125047420081087  0.0000
  Ge     Ge        0.942648729671081    0.052776324764675    0.124433133477575  0.0000
  Ge     Ge        0.167988484991452    0.295502983452032    0.265035954794424  0.0000
  Ge     Ge        0.320696876047257    0.771287188233896    0.261893259132753  0.0000
  Ge     Ge        0.844295856434027    0.352854581426975    0.690663997965413  0.0000
  Ge     Ge        0.636121568720720    0.677185498608566    0.696476038284239  0.0000
  Ge     Ge        0.819010637455321    0.755638683207545    0.694873280484335  0.0000
  Ge     Ge        0.661395217461237    0.274876741703665    0.698244750817545  0.0000
  Ge     Ge        0.351629931904996    0.371639888641920    0.265062444744412  0.0000
  Ge     Ge        0.668716001623638    0.273027784736652    0.014042063624040  0.0000
  Ge     Ge        0.819721371533396    0.765699195923186    0.009994380144112  0.0000
  Ge     Ge        0.346388489028371    0.354791178753979    0.950761835792877  0.0000
  Ge     Ge        0.143869912128677    0.682981755704864    0.943631831073542  0.0000
  Ge     Ge        0.326160257507960    0.759599063328522    0.947868547708328  0.0000
  Ge     Ge        0.162277560413961    0.278432615517172    0.953818211234637  0.0000
  Ge     Ge        0.638557259766781    0.674185341015229    0.011171154108803  0.0000
  Ge     Ge        0.849669405831394    0.362710051307944    0.007071251113764  0.0000
  Si     Si        0.540413142576657    0.990173194370239    0.629404811655320  0.0000
  Si     Si        0.443335471942224    0.049853509124499    0.875720528979286  0.0000
  Si     Si        0.044597435187096    0.986729832775054    0.879190744069222  0.0000
  Si     Si        0.142617951283130    0.689423458488171    0.251940812314303  0.0000
  O1     O1        0.123228150971622    0.153836320909911    0.365905990094201  0.0000
  O1     O1        0.359852028481198    0.932951488090426    0.353296341182810  0.0000
  O1     O1        0.910267444349260    0.238813089661266    0.605495077259234  0.0000
  O3     O3        0.570273749478810    0.799004613412829    0.613318220727987  0.0000
  O1     O1        0.870384876151979    0.895295570839432    0.601337980218512  0.0000
  O3     O3        0.609876396484025    0.124915292184931    0.606269589883027  0.0000
  O3     O3        0.080631906746633    0.797374678747331    0.328185349856585  0.0000
  O1     O1        0.418449388293057    0.264639089628203    0.353095591787266  0.0000
  O1     O1        0.022260596822353    0.993949942368887    0.530834954842383  0.0000
  O3     O3        0.469584641337296    0.026486931131981    0.537397335805694  0.0000
  O1     O1        0.973395188698725    0.051596853493900    0.282326109319659  0.0000
  O1     O1        0.514785151935837    0.994429817577109    0.281313477543497  0.0000
  O3     O3        0.973996486887270    0.021314104313616    0.786782633254791  0.0000
  O2     O2        0.513409180249414    0.017231754872196    0.779261279963273  0.0000
  O1     O1        0.624616667380144    0.124088690498580    0.109529552226065  0.0000
  O1     O1        0.864653597377280    0.917107269499028    0.105674710949440  0.0000
  O3     O3        0.406714191221319    0.234133214937705    0.855906685581564  0.0000
  O3     O3        0.078841480774085    0.798935526223449    0.856302718914278  0.0000
  O3     O3        0.378220835916807    0.902446929203789    0.855512806682396  0.0000
  O3     O3        0.111950420196308    0.129655235806508    0.860345824821389  0.0000
  O1     O1        0.570470096009113    0.781056805362789    0.095176499004117  0.0000
  O1     O1        0.919058041898892    0.259156338037730    0.090222496261658  0.0000
  O3     O3        0.473457053201475    0.049927822522167    0.023479844646047  0.0000
  O3     O3        0.017592309378443    0.989466626050571    0.028334101849371  0.0000
  O3     O3        0.154058247280998    0.505668130986298    0.316416215417065  0.0000
  O1     O1        0.341766300233040    0.575129609933119    0.324858491948468  0.0000
  O1     O1        0.831390830697425    0.552886211757238    0.631470131773843  0.0000
  O1     O1        0.645058925384527    0.474854350316634    0.634538289923808  0.0000
  O1     O1        0.264388220303178    0.263860866574494    0.266820586057824  0.0000
  O3     O3        0.222739164885783    0.796849064710812    0.253527884280035  0.0000
  O1     O1        0.757836279514261    0.240055835235019    0.690118768534386  0.0000
  O1     O1        0.722248751748981    0.789087539069072    0.693695074607628  0.0000
  O1     O1        0.131257560854237    0.263983269478718    0.111499151637974  0.0000
  O1     O1        0.355925587989260    0.778680977183198    0.106599786699405  0.0000
  O1     O1        0.875673760728709    0.380191190600233    0.847822881090507  0.0000
  O1     O1        0.607819717253575    0.649688187507304    0.853419136898701  0.0000
  O1     O1        0.851002258232461    0.775569244015843    0.852720592046035  0.0000
  O1     O1        0.634465651695294    0.263151710770567    0.857533810163039  0.0000
  O3     O3        0.116950687524604    0.656396381009059    0.103988931580975  0.0000
  O1     O1        0.380448859862339    0.381841619596893    0.106280408494112  0.0000
  O1     O1        0.652839415876381    0.476207590245787    0.074267512136752  0.0000
  O1     O1        0.836656867273261    0.563836285269135    0.068560900706382  0.0000
  O1     O1        0.338080052757836    0.555006699909984    0.888401142273617  0.0000
  O1     O1        0.149182940011353    0.477839143368110    0.887116188882956  0.0000
  O1     O1        0.765455402181434    0.242945890991726    0.013142256886699  0.0000
  O1     O1        0.722614076817707    0.794141937977077    0.011477702519551  0.0000
  O1     O1        0.259115994008801    0.247466802194258    0.955899780912390  0.0000
  O1     O1        0.229757932028205    0.794237017467561    0.938659178562647  0.0000
