data_c01070.vasp
_audit_creation_method             Generated by GULP
_audit_author_name                 Salvador R. G. Balestra
_symmetry_space_group_name_H-M     'P 1             '
_symmetry_Int_Tables_number        1

loop_
_symmetry_equiv_pos_site_id
_symmetry_equiv_pos_as_xyz
_cell_length_a                       17.7622
_cell_length_b                        7.8534
_cell_length_c                       10.3989
_cell_angle_alpha                   90.0865
_cell_angle_beta                    91.1148
_cell_angle_gamma                   89.7654

loop_
_atom_site_label
_atom_site_type_symbol
_atom_site_fract_x
_atom_site_fract_y
_atom_site_fract_z
_atom_site_charge
  Ge     Ge        0.052090000000021    0.000000000000000    0.372269999999958  0.0000
  Ge     Ge        0.453111330417084    0.957333544216454    0.381707066522524  0.0000
  Ge     Ge        0.944382026096698    0.987975360608806    0.622124366986182  0.0000
  Ge     Ge        0.562170881160385    0.976741876813524    0.138438506821039  0.0000
  Ge     Ge        0.447461963033449    0.969964668453237    0.892199765105107  0.0000
  Ge     Ge        0.048467013189740    0.999168461172206    0.882278260423024  0.0000
  Ge     Ge        0.151557107774420    0.309135842439488    0.264966755801537  0.0000
  Ge     Ge        0.352033252948841    0.650545714492844    0.270108233090448  0.0000
  Ge     Ge        0.842343626661960    0.297540925953548    0.705793879707623  0.0000
  Ge     Ge        0.647265977626716    0.659177365109515    0.711280846788858  0.0000
  Ge     Ge        0.826624937911328    0.704590706966469    0.698418744996612  0.0000
  Ge     Ge        0.661390408783587    0.249844138477102    0.716910392539701  0.0000
  Ge     Ge        0.173717319737392    0.715156562754199    0.268250364679735  0.0000
  Ge     Ge        0.330461038102030    0.242005904008948    0.265187511748254  0.0000
  Ge     Ge        0.672038531389338    0.268697477837671    0.026080428712205  0.0000
  Ge     Ge        0.833688077775855    0.714598745592457    0.010687376085420  0.0000
  Ge     Ge        0.329328531164855    0.259630924462019    0.952786416728064  0.0000
  Ge     Ge        0.172117802851709    0.718538521819841    0.955302382247683  0.0000
  Ge     Ge        0.148768549515285    0.316838116057194    0.949135253667511  0.0000
  Ge     Ge        0.854255583178915    0.309637212308131    0.017784579068350  0.0000
  Si     Si        0.546667772843622    0.965464106437465    0.640464766732310  0.0000
  Si     Si        0.946705603473161    0.997300852577697    0.126844462524175  0.0000
  Si     Si        0.348836416102099    0.658228813754486    0.963279806962200  0.0000
  Si     Si        0.656101246030804    0.667939416742977    0.016913331103073  0.0000
  O1     O1        0.085959191477734    0.200992166270724    0.351036788808419  0.0000
  O1     O1        0.420239402660732    0.754920088219906    0.355843003914876  0.0000
  O1     O1        0.900153344768004    0.181715788683581    0.609056450503347  0.0000
  O3     O3        0.583440438833769    0.779212637500304    0.622931014084281  0.0000
  O1     O1        0.877821849305857    0.831526118009521    0.599976163312650  0.0000
  O3     O3        0.609515345591976    0.110653714550127    0.622731774528919  0.0000
  O1     O1        0.123185568749326    0.854867485711722    0.358182874495228  0.0000
  O1     O1        0.381663144923985    0.100355395457238    0.354976883856005  0.0000
  O1     O1        0.020059688526080    0.975647904523940    0.525851754699528  0.0000
  O3     O3        0.477478533232108    0.986154860269345    0.542996057204666  0.0000
  O3     O3        0.974219993000254    0.966715962507033    0.272432975817849  0.0000
  O1     O1        0.532373308534780    0.985023019076587    0.294123087780963  0.0000
  O1     O1        0.976374542111434    0.960132270701713    0.778912942883428  0.0000
  O3     O3        0.519953601368628    0.982853973775562    0.787103182237686  0.0000
  O1     O1        0.626534931023409    0.137801970040484    0.128447561290114  0.0000
  O3     O3        0.876954568049694    0.872632884777315    0.098038358413152  0.0000
  O1     O1        0.381145718700004    0.125716875541389    0.860046628386153  0.0000
  O1     O1        0.124806257980421    0.864668037849928    0.864514249443656  0.0000
  O3     O3        0.406072575986032    0.770335836200911    0.882594946877451  0.0000
  O1     O1        0.082650099290180    0.201815864742196    0.864846970163318  0.0000
  O3     O3        0.601452159495147    0.780632269610706    0.102511063736807  0.0000
  O3     O3        0.919035593224340    0.191143219313835    0.105484033048287  0.0000
  O1     O1        0.483621910383140    0.007582479270558    0.043528789383795  0.0000
  O3     O3        0.017152265636020    0.959365970567315    0.036855180259888  0.0000
  O1     O1        0.162549621927319    0.510445783039907    0.324709868190098  0.0000
  O1     O1        0.342706420100400    0.446529773476241    0.323133106438863  0.0000
  O1     O1        0.832172813331437    0.497707109503350    0.644917429137533  0.0000
  O1     O1        0.649610650290945    0.453930150474134    0.657756905672255  0.0000
  O1     O1        0.235832355817945    0.199338269852430    0.270311151758496  0.0000
  O1     O1        0.268200466007551    0.759512952640810    0.279371616228125  0.0000
  O1     O1        0.755559016140049    0.200961692375681    0.713917309920663  0.0000
  O1     O1        0.732925923394204    0.757199712348841    0.698461584013193  0.0000
  O1     O1        0.122255435983589    0.321681240185105    0.107213768233459  0.0000
  O3     O3        0.378420127772345    0.644196785020779    0.110055268373317  0.0000
  O1     O1        0.880467580166119    0.306442319198089    0.859464166702778  0.0000
  O3     O3        0.622887529075320    0.654092807157795    0.872219108161481  0.0000
  O1     O1        0.861396671502249    0.716040240538089    0.854209955012485  0.0000
  O1     O1        0.633983391440092    0.242864940522523    0.874507208514293  0.0000
  O1     O1        0.142592684869165    0.725275763194971    0.111580281215136  0.0000
  O1     O1        0.359565324816946    0.233386149073357    0.109283935980176  0.0000
  O3     O3        0.664003642785864    0.479676797459726    0.075274783642560  0.0000
  O1     O1        0.853695711337184    0.516158238237189    0.072642404614625  0.0000
  O3     O3        0.340147231419172    0.470504215413530    0.904559208257338  0.0000
  O1     O1        0.154385530296225    0.519595105978899    0.891781932105800  0.0000
  O1     O1        0.766262576135507    0.222503330402341    0.025678454558040  0.0000
  O3     O3        0.737934443723342    0.754947358825670    0.012367038276335  0.0000
  O1     O1        0.235099317418498    0.216533257951307    0.941809524020180  0.0000
  O3     O3        0.268188571526949    0.753974377912373    0.961273271048420  0.0000
