data_c01008.vasp
_audit_creation_method             Generated by GULP
_audit_author_name                 Salvador R. G. Balestra
_symmetry_space_group_name_H-M     'P 1             '
_symmetry_Int_Tables_number        1

loop_
_symmetry_equiv_pos_site_id
_symmetry_equiv_pos_as_xyz
_cell_length_a                       17.4637
_cell_length_b                        7.9350
_cell_length_c                       10.4178
_cell_angle_alpha                   91.1121
_cell_angle_beta                    90.0570
_cell_angle_gamma                   88.9322

loop_
_atom_site_label
_atom_site_type_symbol
_atom_site_fract_x
_atom_site_fract_y
_atom_site_fract_z
_atom_site_charge
  Ge     Ge        0.052090000000021    0.000000000000000    0.372269999999958  0.0000
  Ge     Ge        0.452754896470595    0.954250436235513    0.379169436076280  0.0000
  Ge     Ge        0.947871749651802    0.972506168552851    0.626868299439123  0.0000
  Ge     Ge        0.561802523813319    0.012104943678589    0.131002032009815  0.0000
  Ge     Ge        0.940518218255650    0.989237426196552    0.130899865531583  0.0000
  Ge     Ge        0.052965595675911    0.000032802455254    0.883109064024269  0.0000
  Ge     Ge        0.148401058528423    0.310895602405954    0.258926856448779  0.0000
  Ge     Ge        0.357456219538245    0.641647074458491    0.270091553607669  0.0000
  Ge     Ge        0.832591985718883    0.268694340677262    0.715571164546108  0.0000
  Ge     Ge        0.658336329425796    0.710041691585375    0.708180137341055  0.0000
  Ge     Ge        0.841840444743243    0.676733008010630    0.701698648076892  0.0000
  Ge     Ge        0.647464856523435    0.304281267829506    0.718867811202635  0.0000
  Ge     Ge        0.173478640409571    0.709516895986382    0.264066342932747  0.0000
  Ge     Ge        0.331748959584574    0.243019404212944    0.266015884659517  0.0000
  Ge     Ge        0.649946918760220    0.334018194272155    0.029809927316469  0.0000
  Ge     Ge        0.338739169609705    0.247176558274452    0.954692385280880  0.0000
  Ge     Ge        0.175310362330209    0.711271316030555    0.953300641192939  0.0000
  Ge     Ge        0.359915331128683    0.646786508365816    0.958969748170877  0.0000
  Ge     Ge        0.154732777961847    0.313195815346580    0.946007385929200  0.0000
  Ge     Ge        0.839992735289764    0.303276629248010    0.026272729111142  0.0000
  Si     Si        0.547968438873067    0.000623305068169    0.634500293315017  0.0000
  Si     Si        0.454195560871258    0.955239760138754    0.885244981191240  0.0000
  Si     Si        0.844338458249346    0.688589148647071    0.999759658834975  0.0000
  Si     Si        0.661517163477591    0.716030760537802    0.006333985638093  0.0000
  O1     O1        0.080400717733169    0.200010317428954    0.337466347212383  0.0000
  O1     O1        0.421229120674476    0.752419687400147    0.361898618405724  0.0000
  O1     O1        0.883042516970988    0.137249387666404    0.614221933887189  0.0000
  O3     O3        0.606189646024859    0.843776518957267    0.610880449963608  0.0000
  O1     O1        0.901255785223922    0.785447540276477    0.603926499561084  0.0000
  O3     O3        0.590141675594118    0.177542306742886    0.623701718708781  0.0000
  O1     O1        0.126410481539925    0.858526188023143    0.356085198320515  0.0000
  O1     O1        0.378421861750035    0.092122958915369    0.351333693422330  0.0000
  O1     O1        0.025190106842565    0.995106044857992    0.531240113412769  0.0000
  O3     O3        0.478139249501002    0.990627884384563    0.537900747408164  0.0000
  O1     O1        0.971969894476439    0.950883357954962    0.283830697771632  0.0000
  O1     O1        0.531352438508288    0.984491236560808    0.284324757603285  0.0000
  O1     O1        0.977524604087685    0.972014479247437    0.784947745555991  0.0000
  O2     O2        0.520345410411887    0.986733648915540    0.782773763683169  0.0000
  O1     O1        0.594063611921309    0.213845240423546    0.124899762369518  0.0000
  O3     O3        0.873698967787163    0.839003092638141    0.087680537558771  0.0000
  O3     O3        0.387571609468008    0.095393398117453    0.865638104056208  0.0000
  O1     O1        0.125578087716189    0.851543583472907    0.862191190368916  0.0000
  O3     O3        0.420816293081279    0.768926580945015    0.869841781042259  0.0000
  O1     O1        0.091829931201089    0.195047405093055    0.859176385860895  0.0000
  O3     O3        0.638504654885043    0.876316315563483    0.092755590900063  0.0000
  O1     O1        0.892490375334857    0.179497407355817    0.126642159825096  0.0000
  O3     O3        0.485564464728118    0.975146254181665    0.030206927355521  0.0000
  O1     O1        0.021541287833041    0.984947238407192    0.039640098891510  0.0000
  O1     O1        0.157625430918701    0.510848837999403    0.321955033332173  0.0000
  O1     O1        0.346141903430377    0.443243503845372    0.328136488621429  0.0000
  O1     O1        0.838612900021614    0.469564644065089    0.657508048574377  0.0000
  O1     O1        0.648630603437175    0.503663329933492    0.658352694353304  0.0000
  O1     O1        0.235436790306509    0.204970154007961    0.265606284304210  0.0000
  O1     O1        0.269919665148806    0.744975042968133    0.267521193648701  0.0000
  O1     O1        0.737990388635371    0.216546621764175    0.720556812420604  0.0000
  O1     O1        0.751875663105957    0.766517804434131    0.693801288572957  0.0000
  O1     O1        0.121899824910314    0.329209648766018    0.101524031116492  0.0000
  O1     O1        0.390940785394671    0.631987088284536    0.114632401825344  0.0000
  O1     O1        0.867328881796207    0.259157466706560    0.870437699953616  0.0000
  O3     O3        0.624788010810142    0.728899158644541    0.865460984869973  0.0000
  O3     O3        0.879001388617074    0.693266763783259    0.857586025946089  0.0000
  O1     O1        0.617147958414332    0.311793461933392    0.875317555969709  0.0000
  O1     O1        0.141303411518804    0.720208629684983    0.108511455704000  0.0000
  O1     O1        0.367278075855474    0.241801504058574    0.112316449338066  0.0000
  O3     O3        0.637131394421760    0.545305479109724    0.074558773778130  0.0000
  O3     O3        0.863211896945691    0.510814113855540    0.063947557359961  0.0000
  O1     O1        0.354519912558991    0.446114061023462    0.896259841542247  0.0000
  O1     O1        0.163529153757478    0.511327742822715    0.888105589448105  0.0000
  O1     O1        0.743904333433529    0.270955992016471    0.043507967909245  0.0000
  O2     O2        0.752358222191695    0.695935598750008    0.976561977740027  0.0000
  O1     O1        0.242593672463406    0.210527774524440    0.948400736732830  0.0000
  O1     O1        0.271715591640812    0.747014218108597    0.958528342709370  0.0000
