data_c01005.vasp
_audit_creation_method             Generated by GULP
_audit_author_name                 Salvador R. G. Balestra
_symmetry_space_group_name_H-M     'P 1             '
_symmetry_Int_Tables_number        1

loop_
_symmetry_equiv_pos_site_id
_symmetry_equiv_pos_as_xyz
_cell_length_a                       17.5678
_cell_length_b                        7.8116
_cell_length_c                       10.2730
_cell_angle_alpha                   90.6645
_cell_angle_beta                    89.7947
_cell_angle_gamma                   91.3010

loop_
_atom_site_label
_atom_site_type_symbol
_atom_site_fract_x
_atom_site_fract_y
_atom_site_fract_z
_atom_site_charge
  Ge     Ge        0.052090000000021    0.000000000000000    0.372269999999958  0.0000
  Ge     Ge        0.449091049303208    0.054315672010121    0.392743476702569  0.0000
  Ge     Ge        0.947035906446670    0.057388362938793    0.622978014316324  0.0000
  Ge     Ge        0.551338476498374    0.006203577850427    0.128966375114482  0.0000
  Ge     Ge        0.954810223240317    0.071398707074082    0.114147510420662  0.0000
  Ge     Ge        0.060276312533241    0.997012431375895    0.861542269703819  0.0000
  Ge     Ge        0.176542563927101    0.280295285873774    0.297614574601977  0.0000
  Ge     Ge        0.328860001473215    0.773672185505972    0.300721969873162  0.0000
  Ge     Ge        0.850165042489357    0.369837199261770    0.741003806610524  0.0000
  Ge     Ge        0.643105521012759    0.697112773352582    0.748877297151878  0.0000
  Ge     Ge        0.824568269117027    0.772263442395953    0.735640666376987  0.0000
  Ge     Ge        0.668653687917887    0.291933266018095    0.745531220137859  0.0000
  Ge     Ge        0.149294493780360    0.685140243213013    0.297114670834685  0.0000
  Ge     Ge        0.355691239057283    0.366507836140769    0.303697466641462  0.0000
  Ge     Ge        0.671669217454697    0.303854942846920    0.062833763844579  0.0000
  Ge     Ge        0.829020410179270    0.781940765740598    0.050221884169674  0.0000
  Ge     Ge        0.151306242361608    0.682103923876073    0.979691097212392  0.0000
  Ge     Ge        0.335090320133517    0.757101648748863    0.985857707585150  0.0000
  Ge     Ge        0.178855294305378    0.281586052621083    0.982968172835712  0.0000
  Ge     Ge        0.851574056172986    0.382111343904767    0.063226078176885  0.0000
  Si     Si        0.550669714419650    0.005274115624838    0.642390434361036  0.0000
  Si     Si        0.447182946783413    0.050042145291371    0.880736458610620  0.0000
  Si     Si        0.358554699080106    0.359274794078079    0.996891640770184  0.0000
  Si     Si        0.652118024208769    0.700551956154023    0.056806043134866  0.0000
  O1     O1        0.126350101311248    0.144429014804898    0.396269154296312  0.0000
  O1     O1        0.373343295582108    0.912708778405166    0.406652351204202  0.0000
  O1     O1        0.920344211090250    0.261307372558390    0.661431702365466  0.0000
  O3     O3        0.573609551583874    0.812402393864148    0.673194207054159  0.0000
  O1     O1        0.871060688245161    0.919931436645683    0.641467411081780  0.0000
  O3     O3        0.621788120213707    0.134521183088655    0.656079047477013  0.0000
  O1     O1        0.084322430314469    0.795679237463158    0.388588740075094  0.0000
  O1     O1        0.419290259122638    0.261389891619212    0.398728717113433  0.0000
  O1     O1        0.973686063165000    0.046523207184358    0.461102236972083  0.0000
  O3     O3        0.523137942472811    0.013551997725264    0.494197220105899  0.0000
  O1     O1        0.028671162407134    0.019567112865703    0.209072346467881  0.0000
  O1     O1        0.478431968695199    0.016544750448670    0.234456620909525  0.0000
  O1     O1        0.028381073910230    0.001962023064224    0.703862546919160  0.0000
  O2     O2        0.478951349500145    0.061566726215729    0.732569443409901  0.0000
  O1     O1        0.616474394690415    0.170711152638291    0.156012131561333  0.0000
  O1     O1        0.877530673747573    0.934022807239364    0.137015078993385  0.0000
  O2     O2        0.415792105302353    0.238008982275737    0.916724243162095  0.0000
  O1     O1        0.084890586533673    0.790351710695852    0.894390098882279  0.0000
  O3     O3        0.381858665616051    0.903714272346926    0.887604292520626  0.0000
  O1     O1        0.140391344739290    0.124800170241403    0.885446728697450  0.0000
  O3     O3        0.595658623103396    0.810422841209091    0.143805592057514  0.0000
  O1     O1        0.920957621293109    0.273895246741375    0.141707523043310  0.0000
  O3     O3        0.517816117095536    0.007147511042169    0.970549529572247  0.0000
  O1     O1        0.985289559150733    0.064594205767800    0.954208397861761  0.0000
  O1     O1        0.163441552488593    0.486425771995110    0.356361992674024  0.0000
  O1     O1        0.341623491562707    0.568751125460068    0.358420923575599  0.0000
  O1     O1        0.839436086679755    0.569062485113137    0.675793754121846  0.0000
  O1     O1        0.649943409280835    0.492904285411427    0.687094670335664  0.0000
  O1     O1        0.272404220941716    0.245422199242471    0.302540869480149  0.0000
  O1     O1        0.232944342086544    0.806229318772909    0.294932252848512  0.0000
  O1     O1        0.764620242652148    0.258125763469736    0.732847617220752  0.0000
  O1     O1        0.728385056178808    0.805873812782687    0.734252824181380  0.0000
  O1     O1        0.144139962605386    0.263922433799092    0.139169539329269  0.0000
  O1     O1        0.363665453422641    0.786806731373691    0.143412574562340  0.0000
  O1     O1        0.874074625287216    0.401139507519130    0.900632369699379  0.0000
  O3     O3        0.620285544792435    0.670391635851880    0.911213941869351  0.0000
  O1     O1        0.859997864160488    0.793032785962507    0.891043905873179  0.0000
  O1     O1        0.641717424032163    0.275560519445802    0.905171861486826  0.0000
  O1     O1        0.120556732915188    0.665081312696448    0.137784151404311  0.0000
  O3     O3        0.388695443222086    0.379306682666272    0.143722319884612  0.0000
  O3     O3        0.664489369983812    0.515382585064871    0.117121389907401  0.0000
  O1     O1        0.845533159554483    0.586976872130393    0.120557197084738  0.0000
  O3     O3        0.353235332582906    0.546860688062458    0.935834892729190  0.0000
  O1     O1        0.158664570537494    0.477361127188302    0.919146026635512  0.0000
  O1     O1        0.767059682459891    0.265725844332163    0.073432197381006  0.0000
  O3     O3        0.731572156707992    0.808245819413719    0.045647214556077  0.0000
  O3     O3        0.276422334312006    0.265174964504824    0.997864404539281  0.0000
  O1     O1        0.239087492770455    0.785361662279800    0.973931133151720  0.0000
