data_c01023.vasp
_audit_creation_method             Generated by GULP
_audit_author_name                 Salvador R. G. Balestra
_symmetry_space_group_name_H-M     'P 1             '
_symmetry_Int_Tables_number        1

loop_
_symmetry_equiv_pos_site_id
_symmetry_equiv_pos_as_xyz
_cell_length_a                       17.6137
_cell_length_b                        7.8140
_cell_length_c                       10.2210
_cell_angle_alpha                   91.2612
_cell_angle_beta                    89.3178
_cell_angle_gamma                   90.9630

loop_
_atom_site_label
_atom_site_type_symbol
_atom_site_fract_x
_atom_site_fract_y
_atom_site_fract_z
_atom_site_charge
  Ge     Ge        0.052090000000021    0.000000000000000    0.372269999999958  0.0000
  Ge     Ge        0.440325402194309    0.054308270149571    0.360643862343465  0.0000
  Ge     Ge        0.946040685945247    0.036001692089030    0.625989398465775  0.0000
  Ge     Ge        0.543852350856351    0.989978912408394    0.099193807478664  0.0000
  Ge     Ge        0.942076825098154    0.046120498668865    0.131832152894888  0.0000
  Ge     Ge        0.049901632877808    0.977144949536890    0.880664365059923  0.0000
  Ge     Ge        0.168177772956345    0.294864286221868    0.267084899567726  0.0000
  Ge     Ge        0.322437495264163    0.770781602649623    0.265041545185646  0.0000
  Ge     Ge        0.845368350684264    0.352951831654002    0.691703923871865  0.0000
  Ge     Ge        0.638299216450670    0.682130979211614    0.708953986616796  0.0000
  Ge     Ge        0.820144174777835    0.756392283823259    0.700528992644284  0.0000
  Ge     Ge        0.664213471847167    0.278346350927895    0.702756600105585  0.0000
  Ge     Ge        0.348530549276460    0.366677073177399    0.275744582509049  0.0000
  Ge     Ge        0.668907436064732    0.272130978949773    0.021365542800135  0.0000
  Ge     Ge        0.820787339423267    0.760044704163411    0.017315741222658  0.0000
  Ge     Ge        0.152428549730508    0.666147781786947    0.933661393436528  0.0000
  Ge     Ge        0.332672430693517    0.740229183838989    0.947207211939720  0.0000
  Ge     Ge        0.172351725238780    0.267505310289854    0.953606520912380  0.0000
  Ge     Ge        0.641456304755679    0.674403818695108    0.025843773790683  0.0000
  Ge     Ge        0.848312692698741    0.354620204516971    0.011761288109229  0.0000
  Si     Si        0.546824857292370    0.992364238398702    0.601827764749210  0.0000
  Si     Si        0.445017173286242    0.032898570443892    0.846697252919417  0.0000
  Si     Si        0.147114397200010    0.690349633230296    0.248633112487605  0.0000
  Si     Si        0.351714793452995    0.339956588384336    0.966894839915013  0.0000
  O1     O1        0.119549319428021    0.159416067284036    0.368050383967433  0.0000
  O1     O1        0.363358929861701    0.916681386037230    0.369567465324373  0.0000
  O1     O1        0.911485162116618    0.237606170285217    0.604142794310603  0.0000
  O3     O3        0.572026753858824    0.800417454841099    0.627464978389205  0.0000
  O1     O1        0.870722972955007    0.895440499647257    0.605680185019993  0.0000
  O3     O3        0.617185220833216    0.122870564687360    0.610963058391040  0.0000
  O3     O3        0.082232193142817    0.800623420214237    0.318604132333213  0.0000
  O1     O1        0.409935319604238    0.260651871405621    0.373837151865378  0.0000
  O1     O1        0.023583819154726    0.985117842452354    0.533646337728450  0.0000
  O3     O3        0.515037734565868    0.001336814910932    0.455546923799856  0.0000
  O1     O1        0.971196133228616    0.051629547654699    0.291656392157225  0.0000
  O1     O1        0.469926996798437    0.030771336612344    0.199319124229603  0.0000
  O1     O1        0.975156266088386    0.025871190634246    0.787390042286223  0.0000
  O2     O2        0.477021645696460    0.049485911829557    0.697983367702986  0.0000
  O1     O1        0.618417226912530    0.133624363158217    0.116412957060117  0.0000
  O1     O1        0.865766725741477    0.908818881971331    0.114742133341342  0.0000
  O2     O2        0.408616221071863    0.215789560887105    0.886510385012384  0.0000
  O1     O1        0.085374561196296    0.774644299714747    0.852350631596796  0.0000
  O3     O3        0.383683031797319    0.878779270493667    0.849549194782283  0.0000
  O1     O1        0.127447815332334    0.113816135827945    0.862207790704419  0.0000
  O1     O1        0.577813333359631    0.787325282105594    0.119302246152159  0.0000
  O1     O1        0.917436163611822    0.250418321490133    0.092131267464911  0.0000
  O3     O3        0.515470684481651    0.995179183573197    0.936667174177527  0.0000
  O1     O1        0.019117954169827    0.981280087577517    0.041048602745700  0.0000
  O3     O3        0.156397114666462    0.508186447697078    0.316417086286910  0.0000
  O1     O1        0.339885600246758    0.572788908362327    0.328081582718810  0.0000
  O1     O1        0.833541190326512    0.553537228954317    0.634300593677090  0.0000
  O1     O1        0.647709819668920    0.479014673103784    0.642981001679928  0.0000
  O1     O1        0.263298890068534    0.256882070032582    0.277033917794840  0.0000
  O3     O3        0.225472797600462    0.800595725147142    0.256803647304131  0.0000
  O1     O1        0.759883241354822    0.242088796149253    0.692024719579448  0.0000
  O1     O1        0.724163568308647    0.790741590671649    0.703438301836023  0.0000
  O1     O1        0.136220486094283    0.256891631647175    0.110983138417373  0.0000
  O1     O1        0.357651664174423    0.778712592165212    0.106859381325264  0.0000
  O1     O1        0.874761898759286    0.375467349280708    0.851058102792352  0.0000
  O1     O1        0.609841135873515    0.653288917599133    0.867150292492821  0.0000
  O1     O1        0.853680594196694    0.773364288611442    0.858362686672465  0.0000
  O1     O1        0.636357860610808    0.264444416217068    0.863182327124318  0.0000
  O3     O3        0.128529745399240    0.647993647003672    0.098486799630319  0.0000
  O3     O3        0.381088714003892    0.368048198553481    0.113813371477796  0.0000
  O1     O1        0.656203591310617    0.476678592724767    0.085651277490948  0.0000
  O1     O1        0.835621475757207    0.557270515599053    0.074745018516638  0.0000
  O3     O3        0.347544188883444    0.525739835440878    0.903245171827561  0.0000
  O1     O1        0.157076694213991    0.459157747503758    0.879092747507876  0.0000
  O1     O1        0.764665245559657    0.236113858670483    0.020180613125490  0.0000
  O1     O1        0.724961443105230    0.792762833449133    0.017826840278760  0.0000
  O3     O3        0.269577847449199    0.246899980622547    0.969075662876763  0.0000
  O1     O1        0.238229498300351    0.773795005078091    0.924107570532942  0.0000
