data_c01085.vasp
_audit_creation_method             Generated by GULP
_audit_author_name                 Salvador R. G. Balestra
_symmetry_space_group_name_H-M     'P 1             '
_symmetry_Int_Tables_number        1

loop_
_symmetry_equiv_pos_site_id
_symmetry_equiv_pos_as_xyz
_cell_length_a                       17.5742
_cell_length_b                        7.8469
_cell_length_c                       10.1974
_cell_angle_alpha                   88.9035
_cell_angle_beta                    90.9853
_cell_angle_gamma                   91.4375

loop_
_atom_site_label
_atom_site_type_symbol
_atom_site_fract_x
_atom_site_fract_y
_atom_site_fract_z
_atom_site_charge
  Ge     Ge        0.052090000000021    0.000000000000000    0.372269999999958  0.0000
  Ge     Ge        0.444470927349175    0.054418669108955    0.385065514021242  0.0000
  Ge     Ge        0.941513328843180    0.064173498682178    0.616216329466501  0.0000
  Ge     Ge        0.558243337579022    0.006314648210231    0.147061721070426  0.0000
  Ge     Ge        0.448203649908234    0.065775556205991    0.892394978895411  0.0000
  Ge     Ge        0.046558656776000    0.013593488771824    0.875555095580965  0.0000
  Ge     Ge        0.172788589892531    0.289192391685513    0.261713103443441  0.0000
  Ge     Ge        0.326590010889138    0.759125640400721    0.269344083431871  0.0000
  Ge     Ge        0.843891734080204    0.374539102050437    0.690355653491608  0.0000
  Ge     Ge        0.639411018145039    0.702335061951261    0.707597822831090  0.0000
  Ge     Ge        0.820985698128574    0.775617004016361    0.695040985481047  0.0000
  Ge     Ge        0.662394148658856    0.298558676068480    0.709346362717538  0.0000
  Ge     Ge        0.144844496011443    0.687836415403395    0.265318493877985  0.0000
  Ge     Ge        0.675635449489681    0.294282888750226    0.026709580511862  0.0000
  Ge     Ge        0.831185240545375    0.774178338331324    0.013246475158035  0.0000
  Ge     Ge        0.350839275717183    0.379581383102098    0.952754779374209  0.0000
  Ge     Ge        0.150453517140718    0.703775798894933    0.944716733044271  0.0000
  Ge     Ge        0.170117624881490    0.303496075993708    0.943658277809069  0.0000
  Ge     Ge        0.648810194584526    0.696035806895202    0.025904472456893  0.0000
  Ge     Ge        0.857585529460838    0.372104625472124    0.007848030572683  0.0000
  Si     Si        0.543999385644863    0.013283577693453    0.638406128636715  0.0000
  Si     Si        0.947987526325521    0.059898188643427    0.124333924281439  0.0000
  Si     Si        0.351343210775735    0.362627714725434    0.262718993230372  0.0000
  Si     Si        0.328205338114579    0.776849499978900    0.959332691208681  0.0000
  O1     O1        0.131115613326384    0.128623634025756    0.351783518549647  0.0000
  O1     O1        0.375955551981135    0.897937285427683    0.366613591974275  0.0000
  O1     O1        0.904175701140642    0.262875353378308    0.594991547051536  0.0000
  O3     O3        0.575594396683921    0.825270205227836    0.617769955509093  0.0000
  O1     O1        0.869206531837922    0.915392513236479    0.594232585205712  0.0000
  O3     O3        0.610878975322743    0.154537235501655    0.615318647759497  0.0000
  O1     O1        0.077314515206974    0.793865886583552    0.349222711425029  0.0000
  O3     O3        0.410808281369171    0.255070107454575    0.349001435713374  0.0000
  O1     O1        0.020672636461690    0.025430525880516    0.529335951246823  0.0000
  O3     O3        0.470553093682743    0.051560292650224    0.550675284200406  0.0000
  O3     O3        0.974421493358191    0.057069625614341    0.275681699273712  0.0000
  O1     O1        0.526182632702211    0.013533388949056    0.304684600626260  0.0000
  O1     O1        0.968919584067717    0.047467288531050    0.780345819898932  0.0000
  O3     O3        0.521740525692082    0.023829656582723    0.791652473076117  0.0000
  O1     O1        0.635307775935303    0.142124447683047    0.126564264696144  0.0000
  O3     O3        0.876681018653485    0.930437041559395    0.103986923592862  0.0000
  O1     O1        0.413576712230104    0.267347314234659    0.864670111224383  0.0000
  O1     O1        0.088873401537665    0.821145442672464    0.851965403269561  0.0000
  O3     O3        0.374756593518839    0.914671161654337    0.874188726619846  0.0000
  O1     O1        0.116415988568366    0.167275472645751    0.850525624551172  0.0000
  O1     O1        0.585349840853056    0.802122334747807    0.116781017343572  0.0000
  O3     O3        0.926223424185294    0.253079703637757    0.087093225056862  0.0000
  O1     O1        0.482197973313869    0.063988271336075    0.050529912970109  0.0000
  O3     O3        0.018890860811007    0.004414340506012    0.039031562784443  0.0000
  O1     O1        0.152827968136723    0.483617099774758    0.326160138668356  0.0000
  O3     O3        0.340999410276612    0.549390244721604    0.320592503485050  0.0000
  O1     O1        0.830141913891498    0.575464697614742    0.630212879664477  0.0000
  O1     O1        0.646648159436014    0.501865563474729    0.647411422758245  0.0000
  O3     O3        0.270244728845235    0.261917087308269    0.260585861672459  0.0000
  O1     O1        0.231527787659196    0.794815208163773    0.278288585785795  0.0000
  O1     O1        0.758119681615946    0.263139494625263    0.700918275277326  0.0000
  O1     O1        0.725681752578212    0.811889473974428    0.703746703285943  0.0000
  O1     O1        0.139578178245770    0.282767491970157    0.102934161067792  0.0000
  O3     O3        0.358040342668324    0.785803955276520    0.109897506871906  0.0000
  O1     O1        0.881670553440975    0.395486733538444    0.846359376176898  0.0000
  O1     O1        0.613373718986896    0.679371778595928    0.868359332968121  0.0000
  O1     O1        0.858493323399226    0.785471100417664    0.852425006158445  0.0000
  O1     O1        0.636203763172363    0.283943663575601    0.871074726100570  0.0000
  O1     O1        0.119327685000928    0.677272692608769    0.102788565555526  0.0000
  O3     O3        0.381280402294730    0.382066225698776    0.115388591167496  0.0000
  O1     O1        0.662017233257742    0.494231403619151    0.087738398279920  0.0000
  O1     O1        0.851657422275089    0.572040809537685    0.072312514723282  0.0000
  O3     O3        0.341241789117386    0.588703377430785    0.902073125399261  0.0000
  O1     O1        0.158052924869493    0.506807468518152    0.880824697607622  0.0000
  O1     O1        0.771584173405844    0.264828689511002    0.016625717058286  0.0000
  O1     O1        0.735266727531577    0.804417248674554    0.021746540316166  0.0000
  O1     O1        0.265700698343425    0.268820063283720    0.941529646061245  0.0000
  O3     O3        0.238544230647746    0.810634985122856    0.955118936116883  0.0000
