data_c01038.vasp
_audit_creation_method             Generated by GULP
_audit_author_name                 Salvador R. G. Balestra
_symmetry_space_group_name_H-M     'P 1             '
_symmetry_Int_Tables_number        1

loop_
_symmetry_equiv_pos_site_id
_symmetry_equiv_pos_as_xyz
_cell_length_a                       17.5292
_cell_length_b                        7.8270
_cell_length_c                       10.2828
_cell_angle_alpha                   89.5901
_cell_angle_beta                    89.6157
_cell_angle_gamma                   91.6688

loop_
_atom_site_label
_atom_site_type_symbol
_atom_site_fract_x
_atom_site_fract_y
_atom_site_fract_z
_atom_site_charge
  Ge     Ge        0.052090000000021    0.000000000000000    0.372269999999958  0.0000
  Ge     Ge        0.451029743581152    0.055282024610361    0.377428883782030  0.0000
  Ge     Ge        0.946676694474303    0.059218895053963    0.625653116712928  0.0000
  Ge     Ge        0.558988442152985    0.012243689082894    0.125020812503206  0.0000
  Ge     Ge        0.948598517586212    0.074823903917130    0.123822970099579  0.0000
  Ge     Ge        0.055240998288894    0.012361395954467    0.874751546641758  0.0000
  Ge     Ge        0.177194517529825    0.288101155523490    0.258155516742277  0.0000
  Ge     Ge        0.328983009834353    0.773195843814710    0.269364861193424  0.0000
  Ge     Ge        0.850960638852048    0.377464910397445    0.696891313604911  0.0000
  Ge     Ge        0.647930315196568    0.702718237225612    0.695916867057035  0.0000
  Ge     Ge        0.666891043078909    0.301474862786838    0.705744650126899  0.0000
  Ge     Ge        0.147082464056359    0.689762440756607    0.258668454728739  0.0000
  Ge     Ge        0.359007732926262    0.372257069915751    0.261753813164169  0.0000
  Ge     Ge        0.674314280317817    0.311554635171532    0.018422592170092  0.0000
  Ge     Ge        0.826778272356165    0.789232806122960    0.001635161693968  0.0000
  Ge     Ge        0.360706449182026    0.383984234411877    0.945682284567253  0.0000
  Ge     Ge        0.155794257068250    0.702036786650184    0.942480985203991  0.0000
  Ge     Ge        0.337181143325942    0.786696068815492    0.954471755723392  0.0000
  Ge     Ge        0.179588344071011    0.300144844610635    0.942672711520555  0.0000
  Ge     Ge        0.858119835139236    0.388814710675019    0.009983526904825  0.0000
  Si     Si        0.551287714086290    0.014722893175873    0.630189392380598  0.0000
  Si     Si        0.455407444880606    0.076997212765085    0.878927903688075  0.0000
  Si     Si        0.825814745878569    0.772344966456915    0.690675790539991  0.0000
  Si     Si        0.650004919387467    0.705741201826441    0.006553105547074  0.0000
  O1     O1        0.129680944592822    0.134356510226134    0.347653187695244  0.0000
  O1     O1        0.372512681800434    0.921712619359937    0.366948960885326  0.0000
  O1     O1        0.909809505614182    0.257999949231003    0.601858951786247  0.0000
  O3     O3        0.582794623097773    0.824911393214672    0.615319596832412  0.0000
  O3     O3        0.874038148096339    0.906245760191877    0.603225168689946  0.0000
  O3     O3        0.620384206354964    0.151609492056593    0.609552369191281  0.0000
  O1     O1        0.078087691948391    0.794276626080000    0.342992547751796  0.0000
  O1     O1        0.426491000532737    0.261219156021357    0.343727989978004  0.0000
  O1     O1        0.024266628167110    0.018503703196292    0.532697489748098  0.0000
  O3     O3        0.481646106747293    0.046801463634539    0.537324992111021  0.0000
  O1     O1        0.973266180058737    0.053805994123885    0.284168960219675  0.0000
  O1     O1        0.524507776400310    0.992129223965848    0.280352616387781  0.0000
  O1     O1        0.976761002660076    0.050432446774103    0.785251886065323  0.0000
  O2     O2        0.524105370852839    0.037665224922635    0.780677467319531  0.0000
  O1     O1        0.630032689402327    0.166940898443331    0.121367445378449  0.0000
  O1     O1        0.869056427462831    0.951027370787502    0.085138020008373  0.0000
  O3     O3        0.424495721896972    0.266225743698753    0.855915111947644  0.0000
  O1     O1        0.092800997006901    0.814245229199415    0.851342792395945  0.0000
  O3     O3        0.387044514065412    0.937445070128458    0.862419000081589  0.0000
  O1     O1        0.127729639592592    0.162187115725504    0.848337938709424  0.0000
  O3     O3        0.587294585448853    0.810261292895390    0.082293864399013  0.0000
  O1     O1        0.924908500167879    0.283955242391709    0.097939894148237  0.0000
  O3     O3        0.484351807951498    0.070109956281217    0.026891281713152  0.0000
  O1     O1        0.026507313795179    0.016414640150256    0.036089132423520  0.0000
  O1     O1        0.159103326273026    0.487846245017391    0.319345491874336  0.0000
  O1     O1        0.344615363294327    0.569786128943299    0.326974168679895  0.0000
  O3     O3        0.839107047565044    0.581849337725021    0.637322257184370  0.0000
  O1     O1        0.649553839156477    0.499835127961489    0.638313056537464  0.0000
  O1     O1        0.273627525273747    0.256874629890133    0.261864681088895  0.0000
  O1     O1        0.232658139371461    0.803586854054882    0.266003523940251  0.0000
  O1     O1        0.763338550903069    0.273419531977670    0.704549953653161  0.0000
  O3     O3        0.736206144441063    0.807565453249431    0.684261872194819  0.0000
  O1     O1        0.145879261261228    0.281139567674505    0.100118028969401  0.0000
  O1     O1        0.365713388974282    0.795038042759344    0.113832933506000  0.0000
  O1     O1        0.887933401204920    0.390609065916327    0.850250286052987  0.0000
  O3     O3        0.624533157275868    0.676732055755248    0.858355789556096  0.0000
  O3     O3        0.854284675472917    0.787007950891792    0.839319181699842  0.0000
  O1     O1        0.637861209929853    0.283800403769553    0.865387917966105  0.0000
  O1     O1        0.121406542390821    0.673817877198486    0.098559451938217  0.0000
  O1     O1        0.388929262562085    0.404875863466779    0.104209488628842  0.0000
  O3     O3        0.660710020821747    0.520445548139734    0.070329032169191  0.0000
  O1     O1        0.850872574238938    0.594518650052808    0.064746962552264  0.0000
  O1     O1        0.351845366919885    0.587260841136521    0.887934977117656  0.0000
  O1     O1        0.169268669204121    0.503889957857981    0.880731229739981  0.0000
  O1     O1        0.770634966688886    0.283536584305700    0.018349391989456  0.0000
  O3     O3        0.729292160890401    0.815283896720259    0.008928667002457  0.0000
  O1     O1        0.275645917609570    0.267764522396766    0.944239319818097  0.0000
  O1     O1        0.240856084443393    0.818639355306876    0.950097528743459  0.0000
