data_c01003.vasp
_audit_creation_method             Generated by GULP
_audit_author_name                 Salvador R. G. Balestra
_symmetry_space_group_name_H-M     'P 1             '
_symmetry_Int_Tables_number        1

loop_
_symmetry_equiv_pos_site_id
_symmetry_equiv_pos_as_xyz
_cell_length_a                       17.6712
_cell_length_b                        7.8639
_cell_length_c                       10.4847
_cell_angle_alpha                   89.3316
_cell_angle_beta                    89.9875
_cell_angle_gamma                   90.4781

loop_
_atom_site_label
_atom_site_type_symbol
_atom_site_fract_x
_atom_site_fract_y
_atom_site_fract_z
_atom_site_charge
  Ge     Ge        0.052090000000021    0.000000000000000    0.372269999999958  0.0000
  Ge     Ge        0.449191742691882    0.978523522161222    0.357596488647594  0.0000
  Ge     Ge        0.952030772087581    0.995026806697533    0.630773244575720  0.0000
  Ge     Ge        0.548930586733311    0.974109072327414    0.094484624805182  0.0000
  Ge     Ge        0.946020928146702    0.008523408701543    0.126904479888850  0.0000
  Ge     Ge        0.059061198686898    0.995784758214385    0.884337454895095  0.0000
  Ge     Ge        0.152634683226526    0.309359490573526    0.255183142223800  0.0000
  Ge     Ge        0.351656527856850    0.669986342175243    0.263542555856901  0.0000
  Ge     Ge        0.849208315104206    0.308710652301135    0.704848593091668  0.0000
  Ge     Ge        0.644621824094259    0.653810237170226    0.702070075794823  0.0000
  Ge     Ge        0.827002691807787    0.713567079643133    0.696739004030187  0.0000
  Ge     Ge        0.667177201838377    0.250955558879195    0.711587381197255  0.0000
  Ge     Ge        0.172897909803476    0.718025971628930    0.255760730308152  0.0000
  Ge     Ge        0.333184377478824    0.256867890046079    0.259808058514575  0.0000
  Ge     Ge        0.672341671273463    0.256644369530268    0.022654684288850  0.0000
  Ge     Ge        0.825814517966732    0.728150468438048    0.006319221830508  0.0000
  Ge     Ge        0.340937867020643    0.283319158727832    0.951621368409042  0.0000
  Ge     Ge        0.154897203647895    0.321787144955399    0.945888671965935  0.0000
  Ge     Ge        0.644935683077194    0.656880184409302    0.012648324304342  0.0000
  Ge     Ge        0.853047793665548    0.323211248160478    0.016272694442211  0.0000
  Si     Si        0.549803430675654    0.963393292314789    0.608209250372206  0.0000
  Si     Si        0.445348337778235    0.992935968367625    0.847110555594178  0.0000
  Si     Si        0.173931367045861    0.712795974361788    0.954521570961837  0.0000
  Si     Si        0.353647539943510    0.680383354525279    0.962857717805486  0.0000
  O1     O1        0.087847878038059    0.200682273775552    0.345832700360488  0.0000
  O1     O1        0.413298215260952    0.775755348756999    0.360917202471090  0.0000
  O1     O1        0.913030832279645    0.193951804866277    0.619340067858748  0.0000
  O3     O3        0.580723811053558    0.772916829163723    0.613938970202835  0.0000
  O1     O1        0.880163773784600    0.850205199020474    0.605089164722111  0.0000
  O3     O3        0.617639048739180    0.093802204962246    0.634599664180790  0.0000
  O1     O1        0.120308149184440    0.851749721151917    0.344283453887492  0.0000
  O1     O1        0.378551035773512    0.126581477372273    0.365853485739522  0.0000
  O1     O1        0.026418047555442    0.976863613571956    0.529203296185136  0.0000
  O3     O3        0.519455314701547    0.005114091802925    0.467586911926140  0.0000
  O1     O1        0.972128587431179    0.972075674177683    0.282157330744549  0.0000
  O1     O1        0.484263280129990    0.017827052805276    0.206719008495132  0.0000
  O1     O1        0.987143031502116    0.955995446889704    0.782130579681743  0.0000
  O2     O2        0.478749922619131    0.983396200771917    0.704370603379084  0.0000
  O1     O1        0.625309025499808    0.109879241485932    0.112496323434261  0.0000
  O1     O1        0.870177257752837    0.879232152038215    0.094432766969205  0.0000
  O3     O3        0.388610761481567    0.150355180196813    0.850422930116058  0.0000
  O3     O3        0.136092626414931    0.857904056047088    0.870436591018454  0.0000
  O2     O2        0.399916659787246    0.817849851529766    0.879181742388482  0.0000
  O1     O1        0.096580253391226    0.195764468821547    0.856765676113393  0.0000
  O1     O1        0.581487789407966    0.769611386488285    0.101164840439908  0.0000
  O1     O1        0.919015982957725    0.216487471584339    0.104257765813375  0.0000
  O3     O3        0.513931997568072    0.019318464195630    0.943072176859302  0.0000
  O1     O1        0.024189041179434    0.967877497348583    0.035787190203580  0.0000
  O1     O1        0.162804192477798    0.511727464208425    0.310428746229406  0.0000
  O1     O1        0.342890238983230    0.464150142613974    0.310595036041152  0.0000
  O1     O1        0.839641096064473    0.509236488084185    0.643475088698034  0.0000
  O1     O1        0.651409787932551    0.450315032727403    0.645929344643930  0.0000
  O1     O1        0.238671990074499    0.207898973643714    0.257038277424975  0.0000
  O1     O1        0.266441733613438    0.773128475708938    0.267988089252485  0.0000
  O1     O1        0.762161201141621    0.207515390709620    0.703901318563844  0.0000
  O1     O1        0.731827073352911    0.752705337927460    0.693004042284789  0.0000
  O1     O1        0.121993066059863    0.308191870374235    0.099644376353768  0.0000
  O3     O3        0.384944065543799    0.684046958430949    0.106434235614514  0.0000
  O1     O1        0.881552735647708    0.320416647104758    0.859310555959616  0.0000
  O1     O1        0.614031032540463    0.646975473059593    0.857127515393342  0.0000
  O1     O1        0.857774638486931    0.730930237932509    0.851881459313700  0.0000
  O1     O1        0.640522365230951    0.258066395380370    0.867550816643426  0.0000
  O3     O3        0.142645419576130    0.719916361119558    0.098524514982101  0.0000
  O1     O1        0.368192188839300    0.247649360046992    0.106184921453680  0.0000
  O1     O1        0.656800663776968    0.459800700930557    0.078361682537683  0.0000
  O1     O1        0.843223952627994    0.527206234390505    0.067847339565435  0.0000
  O3     O3        0.361948244641100    0.493140994381595    0.907378794144506  0.0000
  O3     O3        0.153454597559090    0.531154058649267    0.893697152460038  0.0000
  O1     O1        0.767354816943189    0.218123642930632    0.024928253937741  0.0000
  O1     O1        0.730459565829134    0.763971975898721    0.007000224522055  0.0000
  O1     O1        0.246003838222787    0.248054978839093    0.939433125757655  0.0000
  O2     O2        0.265003222296628    0.729916802847141    0.966233320490960  0.0000
