data_c01094.vasp
_audit_creation_method             Generated by GULP
_audit_author_name                 Salvador R. G. Balestra
_symmetry_space_group_name_H-M     'P 1             '
_symmetry_Int_Tables_number        1

loop_
_symmetry_equiv_pos_site_id
_symmetry_equiv_pos_as_xyz
_cell_length_a                       17.4248
_cell_length_b                        7.8111
_cell_length_c                       10.3272
_cell_angle_alpha                   92.4126
_cell_angle_beta                    88.7757
_cell_angle_gamma                   88.1290

loop_
_atom_site_label
_atom_site_type_symbol
_atom_site_fract_x
_atom_site_fract_y
_atom_site_fract_z
_atom_site_charge
  Ge     Ge        0.052090000000021    0.000000000000000    0.372269999999958  0.0000
  Ge     Ge        0.459432545271231    0.007765299758664    0.393246302405141  0.0000
  Ge     Ge        0.967618089599043    0.931953362727956    0.647716879678765  0.0000
  Ge     Ge        0.563042436518671    0.016038212355546    0.131626530643436  0.0000
  Ge     Ge        0.458203869292455    0.002895223403389    0.878981198308587  0.0000
  Ge     Ge        0.073656277669994    0.985514419830631    0.894052716649891  0.0000
  Ge     Ge        0.177093402272611    0.276247841850123    0.305949459875708  0.0000
  Ge     Ge        0.331899188955989    0.744849909440387    0.319249172022724  0.0000
  Ge     Ge        0.840615283657565    0.234935503882398    0.749009978941348  0.0000
  Ge     Ge        0.684315303753044    0.687843794903519    0.734111478928083  0.0000
  Ge     Ge        0.869975457194415    0.620920932876888    0.718868000449530  0.0000
  Ge     Ge        0.662792570103230    0.274744955030120    0.757562976844100  0.0000
  Ge     Ge        0.363197311374283    0.325120064631443    0.304534595591692  0.0000
  Ge     Ge        0.653819756586425    0.337775665312135    0.068623444806311  0.0000
  Ge     Ge        0.875093075682750    0.665015296245661    0.039891182791390  0.0000
  Ge     Ge        0.369894550287222    0.336215713485799    0.992941758257206  0.0000
  Ge     Ge        0.337214606331207    0.748315926359575    0.007352448275665  0.0000
  Ge     Ge        0.182489447975255    0.284785406982720    0.987784943085677  0.0000
  Ge     Ge        0.687711739451796    0.734929593862934    0.044744979931111  0.0000
  Ge     Ge        0.832377331805342    0.294624019214383    0.069305435058844  0.0000
  Si     Si        0.565374185061952    0.972242609599220    0.635816174056712  0.0000
  Si     Si        0.953347922799840    0.005175757445143    0.116236884215786  0.0000
  Si     Si        0.160420147508962    0.669357029056818    0.317106173778617  0.0000
  Si     Si        0.165017763662268    0.671337061236878    0.009807807976822  0.0000
  O1     O1        0.126899143548130    0.132891789366734    0.392296792011595  0.0000
  O1     O1        0.383508178123470    0.876607305896210    0.418260148118826  0.0000
  O1     O1        0.894997932952436    0.051715901372972    0.730221041680535  0.0000
  O3     O3        0.631410696412735    0.824783760769725    0.640494870549516  0.0000
  O1     O1        0.932518609433778    0.732014054589365    0.625692855391162  0.0000
  O3     O3        0.593690472883191    0.158423842459219    0.679676794512308  0.0000
  O3     O3        0.087423802247874    0.790116205274184    0.353508641342872  0.0000
  O1     O1        0.425073903220538    0.217091616802094    0.401170292033276  0.0000
  O1     O1        0.989237217252153    0.016406005651004    0.501670264477333  0.0000
  O3     O3        0.537004604676533    0.976498044472338    0.489976011170111  0.0000
  O3     O3        0.004075781842171    0.061447253225917    0.236621609532780  0.0000
  O1     O1        0.495700350735607    0.956054706554231    0.240304185032666  0.0000
  O1     O1        0.049147138081903    0.930348420228758    0.739655758728798  0.0000
  O3     O3        0.491080287304295    0.936027363850889    0.725684547444369  0.0000
  O1     O1        0.584303470594750    0.229429544245864    0.151163644905548  0.0000
  O3     O3        0.936396072996683    0.804526839002358    0.116840448950656  0.0000
  O1     O1        0.434132240261094    0.219686346640410    0.894169264244452  0.0000
  O3     O3        0.099083298215531    0.809535318534838    0.983894270515807  0.0000
  O1     O1        0.375402546249196    0.896871800801066    0.911552294552188  0.0000
  O1     O1        0.142077160282400    0.135208702495219    0.886611691858693  0.0000
  O1     O1        0.648829866101118    0.899516841213237    0.139587261987176  0.0000
  O3     O3        0.871042212286119    0.104800308116594    0.120779997114976  0.0000
  O1     O1        0.528374848897752    0.948753074815167    0.983327983805014  0.0000
  O3     O3        0.993987290999337    0.064906983642179    0.984147205622750  0.0000
  O3     O3        0.140663197787567    0.479491416337720    0.354336237240424  0.0000
  O1     O1        0.372531804442628    0.541545490166180    0.317788664710471  0.0000
  O1     O1        0.889590559293351    0.405002426635217    0.692036694623734  0.0000
  O1     O1        0.644234266712913    0.491113801349294    0.741278447568643  0.0000
  O1     O1        0.271407474054184    0.268241131445252    0.345431532174494  0.0000
  O3     O3        0.237747142338112    0.737621656941196    0.380523079680726  0.0000
  O1     O1        0.750467632573343    0.213145191932988    0.686714154573993  0.0000
  O1     O1        0.776694501359100    0.656099985081533    0.673794523173705  0.0000
  O1     O1        0.168399885190776    0.222168860950346    0.143577026875185  0.0000
  O1     O1        0.334449961103113    0.823543339270206    0.166204614243862  0.0000
  O1     O1        0.813451614345125    0.304577616167674    0.905437456449373  0.0000
  O1     O1        0.691567818457683    0.786054405125665    0.884170449364959  0.0000
  O1     O1        0.886995786996559    0.691313908769887    0.876717069879710  0.0000
  O1     O1        0.653153261433276    0.231331068199348    0.918148975043982  0.0000
  O2     O2        0.184991984513038    0.652138240232384    0.162877853343248  0.0000
  O1     O1        0.381979739752554    0.259540864036109    0.145260631410830  0.0000
  O1     O1        0.634187401169341    0.552341140831961    0.059735137387851  0.0000
  O1     O1        0.893886795538624    0.461001017916346    0.091238518613636  0.0000
  O1     O1        0.385536253400639    0.552254925517950    0.993459126876064  0.0000
  O3     O3        0.139199744627453    0.484838509735966    0.961864157410399  0.0000
  O1     O1        0.742405594954899    0.314013039724589    0.139064524631342  0.0000
  O1     O1        0.780187963203905    0.690209556043265    0.088280629849454  0.0000
  O1     O1        0.276932235164725    0.303604501750460    0.947737252031820  0.0000
  O3     O3        0.244748980277459    0.726050726825291    0.947052971142135  0.0000
