data_c01031.vasp
_audit_creation_method             Generated by GULP
_audit_author_name                 Salvador R. G. Balestra
_symmetry_space_group_name_H-M     'P 1             '
_symmetry_Int_Tables_number        1

loop_
_symmetry_equiv_pos_site_id
_symmetry_equiv_pos_as_xyz
_cell_length_a                       17.7585
_cell_length_b                        7.8059
_cell_length_c                       10.4141
_cell_angle_alpha                   90.7653
_cell_angle_beta                    89.8336
_cell_angle_gamma                   89.9289

loop_
_atom_site_label
_atom_site_type_symbol
_atom_site_fract_x
_atom_site_fract_y
_atom_site_fract_z
_atom_site_charge
  Ge     Ge        0.052090000000021    0.000000000000000    0.372269999999958  0.0000
  Ge     Ge        0.449132717663607    0.033316828281208    0.393553846226864  0.0000
  Ge     Ge        0.948606204351464    0.972297449176271    0.623986461611264  0.0000
  Ge     Ge        0.547170283015423    0.022620765428972    0.127362064049521  0.0000
  Ge     Ge        0.952601616107608    0.002513607758287    0.113059185874806  0.0000
  Ge     Ge        0.062010060253867    0.995679742505812    0.866632229806763  0.0000
  Ge     Ge        0.173972698271559    0.275148859282468    0.291407305410902  0.0000
  Ge     Ge        0.330575784232825    0.756164408152904    0.300487681234555  0.0000
  Ge     Ge        0.827802685861784    0.261682160055099    0.743645280865854  0.0000
  Ge     Ge        0.664974099938354    0.715368507669462    0.735041041022073  0.0000
  Ge     Ge        0.847128156073366    0.665771309886701    0.723968723537162  0.0000
  Ge     Ge        0.153130603432209    0.686894835957459    0.294614397509385  0.0000
  Ge     Ge        0.352868340825655    0.342773336332179    0.296286529666872  0.0000
  Ge     Ge        0.648197838531829    0.338131214108965    0.054857617409516  0.0000
  Ge     Ge        0.850711529400134    0.685156096919481    0.039177138003174  0.0000
  Ge     Ge        0.358022171454702    0.339015531739784    0.985121213669197  0.0000
  Ge     Ge        0.333459196602125    0.748347326592175    0.988613974942456  0.0000
  Ge     Ge        0.175785340216831    0.285984310615855    0.981741649031598  0.0000
  Ge     Ge        0.671451686091860    0.745816565473615    0.046490851522150  0.0000
  Ge     Ge        0.826449168873926    0.279117084138254    0.056359610289584  0.0000
  Si     Si        0.553440112107868    0.009056797999873    0.641052571415143  0.0000
  Si     Si        0.446524970956806    0.020648138444431    0.876687768064796  0.0000
  Si     Si        0.650485403631358    0.315610618112567    0.748636255341393  0.0000
  Si     Si        0.155757525354737    0.688240109560738    0.989304907995884  0.0000
  O1     O1        0.123773036749389    0.146499366706339    0.391673205226165  0.0000
  O1     O1        0.377751865905145    0.885868256346256    0.406481397528414  0.0000
  O1     O1        0.873958769851572    0.102221933563844    0.663973258517769  0.0000
  O3     O3        0.609650979899304    0.849462561173774    0.644277329749219  0.0000
  O1     O1        0.912548660692932    0.769398613969068    0.632353247352646  0.0000
  O2     O2        0.594505848755968    0.188170093069818    0.672717416333104  0.0000
  O1     O1        0.087582989228122    0.795777763151502    0.384120710080970  0.0000
  O1     O1        0.413017600765356    0.236156873052626    0.396252730044845  0.0000
  O1     O1        0.976163691071524    0.022868489057452    0.470379858245724  0.0000
  O3     O3        0.522902922674066    0.014511418026413    0.497272591460866  0.0000
  O1     O1        0.024909978350826    0.033031926914983    0.215795371153503  0.0000
  O1     O1        0.482392738442516    0.985219438728184    0.241434656337261  0.0000
  O1     O1        0.029918260923938    0.993799525610073    0.711353706879772  0.0000
  O2     O2        0.480903222616131    0.989067323290785    0.734285931656503  0.0000
  O1     O1        0.579534800807876    0.230254457112935    0.135053091267695  0.0000
  O1     O1        0.916102078000414    0.799317965682429    0.124007450364450  0.0000
  O3     O3        0.421134212643790    0.217169070010694    0.895987608454228  0.0000
  O3     O3        0.098018991254987    0.796448089374362    0.905522360058851  0.0000
  O3     O3        0.373687746605424    0.900097951980824    0.891869671325828  0.0000
  O1     O1        0.129359235651739    0.152310486395259    0.878307908218373  0.0000
  O1     O1        0.624288436865088    0.890183965068871    0.139824100524646  0.0000
  O1     O1        0.880131909816059    0.144764626233014    0.144693865010219  0.0000
  O3     O3        0.509063945316785    0.969153783384208    0.978892097964821  0.0000
  O1     O1        0.984840601760011    0.039000810284447    0.959687814517119  0.0000
  O1     O1        0.163391745436051    0.483565418479298    0.347055796198112  0.0000
  O1     O1        0.339843446177090    0.546826463680970    0.349951663766614  0.0000
  O1     O1        0.843461016026838    0.456034203567014    0.673510023903176  0.0000
  O3     O3        0.653613756585629    0.501877859533774    0.685496985939930  0.0000
  O1     O1        0.268689226779381    0.232153469801031    0.291325085141571  0.0000
  O1     O1        0.235984986815582    0.800630813031697    0.302052933435974  0.0000
  O3     O3        0.731626957117126    0.224930667417378    0.746942170611928  0.0000
  O1     O1        0.758934036355417    0.757838804611611    0.715318783943117  0.0000
  O1     O1        0.142687390069988    0.259153874468690    0.134866070463380  0.0000
  O1     O1        0.363086546657569    0.769006837664155    0.144481022004811  0.0000
  O1     O1        0.857152275261776    0.269058524651626    0.899440531723352  0.0000
  O1     O1        0.638620193328412    0.743803755155952    0.890896254264520  0.0000
  O1     O1        0.877902697046339    0.674141808513071    0.880563538781849  0.0000
  O3     O3        0.622589835653140    0.340287241837283    0.893939317651361  0.0000
  O3     O3        0.125061157594433    0.679500044098730    0.134471405786969  0.0000
  O1     O1        0.388413386401408    0.340637474777550    0.141861494787744  0.0000
  O1     O1        0.657986723766034    0.543367812215464    0.108639825743180  0.0000
  O1     O1        0.838745380745618    0.488992520694627    0.105961278532567  0.0000
  O1     O1        0.354580798329636    0.545699340429134    0.931954839184336  0.0000
  O3     O3        0.163662946724431    0.496802157119107    0.933246894710635  0.0000
  O1     O1        0.732641960782083    0.231193636046507    0.067391115757779  0.0000
  O1     O1        0.765485653316075    0.791819415566666    0.041430954296652  0.0000
  O1     O1        0.270623621478256    0.246547473786277    0.979227854324231  0.0000
  O3     O3        0.237009465652693    0.779987971899618    0.988930882279215  0.0000
