data_c01037.vasp
_audit_creation_method             Generated by GULP
_audit_author_name                 Salvador R. G. Balestra
_symmetry_space_group_name_H-M     'P 1             '
_symmetry_Int_Tables_number        1

loop_
_symmetry_equiv_pos_site_id
_symmetry_equiv_pos_as_xyz
_cell_length_a                       17.5125
_cell_length_b                        7.8346
_cell_length_c                       10.2975
_cell_angle_alpha                   89.4239
_cell_angle_beta                    90.1955
_cell_angle_gamma                   88.3197

loop_
_atom_site_label
_atom_site_type_symbol
_atom_site_fract_x
_atom_site_fract_y
_atom_site_fract_z
_atom_site_charge
  Ge     Ge        0.052090000000021    0.000000000000000    0.372269999999958  0.0000
  Ge     Ge        0.450585146136444    0.944660259992326    0.389133212094496  0.0000
  Ge     Ge        0.946833850513541    0.952182129788042    0.627824526744722  0.0000
  Ge     Ge        0.560533016708673    0.004042189938399    0.139480211643368  0.0000
  Ge     Ge        0.950121794503890    0.950117917547479    0.119173646435789  0.0000
  Ge     Ge        0.057582999238433    0.008145542576232    0.875077853154310  0.0000
  Ge     Ge        0.146896308067331    0.313473738937426    0.258476784832856  0.0000
  Ge     Ge        0.359174338026787    0.631495769988497    0.273043555387675  0.0000
  Ge     Ge        0.827399816984871    0.249195611720735    0.697810925680008  0.0000
  Ge     Ge        0.668667043265352    0.718124502351128    0.710139565149911  0.0000
  Ge     Ge        0.644557546572297    0.317874178471275    0.705111514413369  0.0000
  Ge     Ge        0.176827074340972    0.714483852458814    0.262501783122159  0.0000
  Ge     Ge        0.328930758614133    0.230068038687094    0.274008060730357  0.0000
  Ge     Ge        0.653857112569283    0.316943168016269    0.020450162602015  0.0000
  Ge     Ge        0.860425615388891    0.633545980577474    0.003124649656612  0.0000
  Ge     Ge        0.339245434492867    0.231196470607762    0.960110073764118  0.0000
  Ge     Ge        0.181097189439679    0.717060033390634    0.948181739056316  0.0000
  Ge     Ge        0.362899727369899    0.634752207820563    0.958217563201026  0.0000
  Ge     Ge        0.157635568189360    0.315801742019085    0.942654944068793  0.0000
  Ge     Ge        0.679669735770150    0.716731034032715    0.025871412982666  0.0000
  Si     Si        0.551046093210354    0.005491924678363    0.638468052613916  0.0000
  Si     Si        0.457785329743143    0.942743730468221    0.888395505278211  0.0000
  Si     Si        0.848086533902266    0.644353793422652    0.696134586092267  0.0000
  Si     Si        0.832857296037592    0.237756586244914    0.004814968956446  0.0000
  O1     O1        0.078158791598600    0.205972212719387    0.340906282131741  0.0000
  O1     O1        0.424958317848771    0.738714824122250    0.362221991238123  0.0000
  O1     O1        0.879273470198237    0.113507903419089    0.602288332887754  0.0000
  O3     O3        0.622048302653933    0.873283479038758    0.617294836285164  0.0000
  O3     O3        0.904045639285791    0.756544963848343    0.609225665883034  0.0000
  O3     O3        0.579399946550471    0.196955679329282    0.621055998111289  0.0000
  O1     O1        0.129723811751535    0.865458178083234    0.352195954419318  0.0000
  O1     O1        0.372009123023574    0.077079152938725    0.370246849589415  0.0000
  O1     O1        0.024229725373486    0.977714171720970    0.531833214161178  0.0000
  O3     O3        0.480423041468896    0.964683399119473    0.548974058771104  0.0000
  O1     O1        0.973840846811804    0.949932482060578    0.280843022963983  0.0000
  O1     O1        0.525874038485885    0.000856743879824    0.294133045546062  0.0000
  O1     O1        0.979055779191019    0.966327605024311    0.785738010746044  0.0000
  O2     O2        0.526534033068124    0.979318000406918    0.790066998175704  0.0000
  O1     O1        0.590974887753039    0.206884642121522    0.111709712889840  0.0000
  O1     O1        0.929115455946353    0.742283557151282    0.081346747893539  0.0000
  O3     O3        0.389971554518246    0.083846224824871    0.868944440382983  0.0000
  O1     O1        0.130525929251303    0.858760041509751    0.852848737168095  0.0000
  O3     O3        0.426577995135623    0.753981425032044    0.868944301394599  0.0000
  O1     O1        0.095742646776813    0.205364334953949    0.848371812024034  0.0000
  O1     O1        0.636768708904305    0.864025838813093    0.124175204439311  0.0000
  O3     O3        0.873963242896460    0.091766625740817    0.091051833368857  0.0000
  O3     O3        0.487306308568405    0.951582422805030    0.036200002661575  0.0000
  O1     O1        0.029523824997723    0.007887031612987    0.036033764308243  0.0000
  O1     O1        0.158762108560234    0.512831565575654    0.321484289515952  0.0000
  O1     O1        0.344844505391330    0.430919101458837    0.334036478623006  0.0000
  O3     O3        0.837853851169608    0.457055771794914    0.639650345962351  0.0000
  O1     O1        0.648496562888205    0.522061978360767    0.645851065448745  0.0000
  O1     O1        0.232729750495796    0.199539504209382    0.267043010647199  0.0000
  O1     O1        0.273430639152441    0.744829285644099    0.268732812863802  0.0000
  O1     O1        0.731983007414225    0.212414296165929    0.693563180531626  0.0000
  O3     O3        0.766496680493054    0.744466128317805    0.705315427908702  0.0000
  O1     O1        0.122667750833626    0.337734346522592    0.097852555137963  0.0000
  O1     O1        0.392220482742256    0.612132101974592    0.116760656507141  0.0000
  O3     O3        0.861067276175680    0.226173390072100    0.856185708538107  0.0000
  O1     O1        0.643442576413193    0.729869697479323    0.870457294513990  0.0000
  O3     O3        0.883264486946461    0.623749989742008    0.840282832000945  0.0000
  O1     O1        0.618942109029212    0.334846208954480    0.864841335562017  0.0000
  O1     O1        0.145958187776209    0.729028407062445    0.103957500180328  0.0000
  O1     O1        0.367154715858787    0.217638269022084    0.120141947093322  0.0000
  O1     O1        0.663779029397439    0.514310160996954    0.085022526462698  0.0000
  O3     O3        0.851934049514558    0.425204942852012    0.058669888895752  0.0000
  O1     O1        0.354867432570853    0.433685583703323    0.898352129463611  0.0000
  O1     O1        0.171419797332438    0.516014340555902    0.883448124383344  0.0000
  O3     O3        0.742292562633610    0.211882730108710    0.008777130746220  0.0000
  O1     O1        0.776088467221732    0.745299499673519    0.024277749216928  0.0000
  O1     O1        0.243077183408381    0.199573704313638    0.951914390537838  0.0000
  O1     O1        0.277389739730616    0.748969610875500    0.955447557676520  0.0000
