data_c01047.vasp
_audit_creation_method             Generated by GULP
_audit_author_name                 Salvador R. G. Balestra
_symmetry_space_group_name_H-M     'P 1             '
_symmetry_Int_Tables_number        1

loop_
_symmetry_equiv_pos_site_id
_symmetry_equiv_pos_as_xyz
_cell_length_a                       17.7294
_cell_length_b                        7.8130
_cell_length_c                        9.9353
_cell_angle_alpha                   89.1831
_cell_angle_beta                    89.3473
_cell_angle_gamma                   89.3153

loop_
_atom_site_label
_atom_site_type_symbol
_atom_site_fract_x
_atom_site_fract_y
_atom_site_fract_z
_atom_site_charge
  Ge     Ge        0.052090000000021    0.000000000000000    0.372269999999958  0.0000
  Ge     Ge        0.448177985337876    0.964574070833295    0.397189806226646  0.0000
  Ge     Ge        0.943960853612387    0.963531388866639    0.621669965068877  0.0000
  Ge     Ge        0.550787624876094    0.010954119134536    0.132340069211575  0.0000
  Ge     Ge        0.958269429381996    0.946448080937824    0.102888421053265  0.0000
  Ge     Ge        0.066296589760055    0.018291799676654    0.845455028074129  0.0000
  Ge     Ge        0.149609942386208    0.319225823007557    0.299375501138987  0.0000
  Ge     Ge        0.356005694737288    0.649766319730719    0.312947376054311  0.0000
  Ge     Ge        0.832476448776240    0.264886373812713    0.730120549030514  0.0000
  Ge     Ge        0.674072692922048    0.722760966249778    0.730007032890050  0.0000
  Ge     Ge        0.177162648624151    0.725302491400643    0.299037496145149  0.0000
  Ge     Ge        0.328519051415828    0.245245933695315    0.309302152066343  0.0000
  Ge     Ge        0.655684509927927    0.316161814489665    0.057396046575228  0.0000
  Ge     Ge        0.848247581534228    0.636755407964722    0.061047189641629  0.0000
  Ge     Ge        0.338908395677409    0.251202510917498    0.982498397045343  0.0000
  Ge     Ge        0.184751295446715    0.732975083460056    0.972815585003443  0.0000
  Ge     Ge        0.364685817052190    0.657805876996147    0.986788498291919  0.0000
  Ge     Ge        0.158839854254576    0.327013471476432    0.972106935443930  0.0000
  Ge     Ge        0.677122843042956    0.727572999226600    0.063006312341404  0.0000
  Ge     Ge        0.833365150812795    0.234992740199495    0.051869947565436  0.0000
  Si     Si        0.562510931293969    0.019305185202490    0.626116350989270  0.0000
  Si     Si        0.455993151109090    0.970456432295662    0.870471128568592  0.0000
  Si     Si        0.845826813260056    0.651259294553486    0.731329885563596  0.0000
  Si     Si        0.652839135228329    0.325841948530333    0.740402519964577  0.0000
  O1     O1        0.083910890980935    0.205494732280244    0.390606609828968  0.0000
  O1     O1        0.414915842651882    0.760873738727091    0.416467213723819  0.0000
  O1     O1        0.874919324486643    0.116349865691251    0.628219769457634  0.0000
  O3     O3        0.624504394204370    0.870323145202401    0.635362344306877  0.0000
  O3     O3        0.915617629776889    0.769088178975277    0.691052861053336  0.0000
  O2     O2        0.597281627266120    0.203714507243326    0.657764093168430  0.0000
  O1     O1        0.126138028210034    0.859633362264660    0.399666438727528  0.0000
  O1     O1        0.375353740610702    0.108129490303056    0.416237535092081  0.0000
  O1     O1        0.970526545779843    0.947136849500519    0.454197608256819  0.0000
  O3     O3        0.530428741805842    0.018674602568507    0.476071536597750  0.0000
  O1     O1        0.033122942699517    0.980087226721563    0.201902155230757  0.0000
  O1     O1        0.473387666437969    0.978461066210632    0.227790928099094  0.0000
  O1     O1        0.030896885486281    0.014923497369056    0.684898054092718  0.0000
  O2     O2        0.487515454488524    0.979904962435050    0.716404193593108  0.0000
  O1     O1        0.591809551734117    0.207302259751912    0.153464838823828  0.0000
  O1     O1        0.925733013451213    0.738214874585372    0.114713749644735  0.0000
  O3     O3        0.385435899914371    0.099106501591546    0.887169712693512  0.0000
  O1     O1        0.140724715307988    0.879361086392040    0.869919194572324  0.0000
  O3     O3        0.431432703220765    0.775821735010202    0.899553663249593  0.0000
  O1     O1        0.095476781553731    0.222435252428418    0.875843062153645  0.0000
  O1     O1        0.618242403266783    0.853113187715910    0.155811484185418  0.0000
  O1     O1        0.884915258133965    0.085281106144162    0.138644965772392  0.0000
  O3     O3        0.524467737281205    0.018883399325484    0.964243895904558  0.0000
  O1     O1        0.987800322206138    0.965456039811090    0.938289728026496  0.0000
  O1     O1        0.162465328255586    0.519343934715112    0.359538075667859  0.0000
  O1     O1        0.339967202999811    0.448341259484535    0.372326787631625  0.0000
  O3     O3        0.852433560921185    0.466484107481338    0.662193177770223  0.0000
  O3     O3        0.653848248233023    0.516632540401977    0.678161782918710  0.0000
  O1     O1        0.234081039474575    0.205096149989454    0.302770306814024  0.0000
  O1     O1        0.272029238268696    0.763930731733215    0.302748948067169  0.0000
  O3     O3        0.735754670992351    0.240481990165398    0.736447325124356  0.0000
  O3     O3        0.769168013988026    0.752662918472531    0.693547040396358  0.0000
  O1     O1        0.123541194608767    0.337528778212069    0.133448436391608  0.0000
  O1     O1        0.391910180084968    0.635846071401741    0.151453955406141  0.0000
  O1     O1        0.866834341116384    0.224280088988728    0.887512692733142  0.0000
  O1     O1        0.654223717531119    0.756255514147568    0.895526106066352  0.0000
  O3     O3        0.840024861052027    0.598378620866424    0.888650894622535  0.0000
  O3     O3        0.624412283835891    0.341786403533173    0.892780457856367  0.0000
  O1     O1        0.148552172966866    0.741962581417903    0.133560724139087  0.0000
  O1     O1        0.365508111036544    0.236827772160423    0.147891289093609  0.0000
  O1     O1        0.669159310361664    0.516436250545539    0.115273529263238  0.0000
  O1     O1        0.847083400412843    0.432370027807383    0.123664554021388  0.0000
  O1     O1        0.357091640767339    0.455622118706573    0.923237326587136  0.0000
  O1     O1        0.171984897966648    0.530366674499480    0.911048633243013  0.0000
  O1     O1        0.738335228413574    0.197278663073957    0.054931185269069  0.0000
  O1     O1        0.770685505469837    0.765850026581833    0.091559443243928  0.0000
  O1     O1        0.243792948234423    0.217250018317396    0.973807145347576  0.0000
  O1     O1        0.280069889998025    0.766411463230763    0.978876467002494  0.0000
