data_c01046.vasp
_audit_creation_method             Generated by GULP
_audit_author_name                 Salvador R. G. Balestra
_symmetry_space_group_name_H-M     'P 1             '
_symmetry_Int_Tables_number        1

loop_
_symmetry_equiv_pos_site_id
_symmetry_equiv_pos_as_xyz
_cell_length_a                       17.6295
_cell_length_b                        7.8365
_cell_length_c                       10.0642
_cell_angle_alpha                   89.6670
_cell_angle_beta                    89.0829
_cell_angle_gamma                   88.5682

loop_
_atom_site_label
_atom_site_type_symbol
_atom_site_fract_x
_atom_site_fract_y
_atom_site_fract_z
_atom_site_charge
  Ge     Ge        0.052090000000021    0.000000000000000    0.372269999999958  0.0000
  Ge     Ge        0.442654136703921    0.958307897793390    0.401876428750219  0.0000
  Ge     Ge        0.943130444646696    0.961945459991707    0.624163024709801  0.0000
  Ge     Ge        0.544563325946559    0.020614080227941    0.138703559681379  0.0000
  Ge     Ge        0.949915443299614    0.956671114003519    0.116321937403119  0.0000
  Ge     Ge        0.057310916673845    0.018574501682003    0.861375426275180  0.0000
  Ge     Ge        0.145309501987091    0.321156150654188    0.301292868925443  0.0000
  Ge     Ge        0.349228571237492    0.645321813278165    0.318688256493150  0.0000
  Ge     Ge        0.826283658715731    0.262149588764776    0.735815855946475  0.0000
  Ge     Ge        0.668850649048255    0.731788467556441    0.742105702995319  0.0000
  Ge     Ge        0.643485767644254    0.331516617387682    0.742049176759640  0.0000
  Ge     Ge        0.326440319009751    0.244474987238388    0.310563487357350  0.0000
  Ge     Ge        0.645399215789710    0.329256609163322    0.065277377817812  0.0000
  Ge     Ge        0.846995646674938    0.646498565630132    0.062716406523605  0.0000
  Ge     Ge        0.333624836736164    0.252167309911364    0.989043387192926  0.0000
  Ge     Ge        0.177899866493073    0.730343504971811    0.988126302280946  0.0000
  Ge     Ge        0.359178305956164    0.657139144260317    0.995963172083080  0.0000
  Ge     Ge        0.150529246075834    0.326871099230022    0.981578911914649  0.0000
  Ge     Ge        0.669679534209239    0.732716884182918    0.066660776059516  0.0000
  Ge     Ge        0.824916145739434    0.244098239616899    0.056219627416187  0.0000
  Si     Si        0.554567867009651    0.020445947545362    0.634379299734475  0.0000
  Si     Si        0.450335434925687    0.967496719004590    0.880163594424747  0.0000
  Si     Si        0.845931816252997    0.655526717317515    0.742787634293107  0.0000
  Si     Si        0.172256692173695    0.715893468701538    0.304180229877347  0.0000
  O1     O1        0.085444045268926    0.201611327837913    0.397975978921973  0.0000
  O1     O1        0.406883719437636    0.758714432218579    0.420049709755903  0.0000
  O1     O1        0.875619984643627    0.121507923476450    0.635759528582107  0.0000
  O3     O3        0.626455875238574    0.894531477490286    0.652041261180140  0.0000
  O3     O3        0.909852245239935    0.764414435351356    0.669697078431269  0.0000
  O3     O3        0.578339157967708    0.213518488018535    0.656597145934475  0.0000
  O3     O3        0.124941693071761    0.849042022916527    0.394160530780948  0.0000
  O1     O1        0.369875659586045    0.105617502125989    0.418663121506042  0.0000
  O1     O1        0.972030902253330    0.953011574212236    0.459303822871805  0.0000
  O3     O3        0.523890177360874    0.999956615154851    0.486151596436012  0.0000
  O1     O1        0.027547017447307    0.995445343504987    0.206504476466001  0.0000
  O1     O1        0.468699127966825    0.978644529485541    0.235610652827480  0.0000
  O1     O1        0.027249604260289    0.003823484881671    0.700374413595678  0.0000
  O2     O2        0.482788787993798    0.968629596380323    0.728308089681672  0.0000
  O1     O1        0.581797505211364    0.219331734196455    0.160278718550677  0.0000
  O1     O1        0.916768741021734    0.752938890962844    0.139339010846835  0.0000
  O3     O3        0.378670047341578    0.097042464504007    0.892774733267872  0.0000
  O1     O1        0.132505231450921    0.882426536294885    0.896025308018521  0.0000
  O3     O3        0.426904398155670    0.774766026171473    0.913065775023853  0.0000
  O1     O1        0.087607212749277    0.222647522306845    0.885793107960403  0.0000
  O1     O1        0.616245524794345    0.870330210592522    0.160888286636625  0.0000
  O1     O1        0.876068076550390    0.099833454761062    0.147533669412484  0.0000
  O3     O3        0.517667605050553    0.024258806506384    0.972978666643362  0.0000
  O1     O1        0.977564536422077    0.971003786377883    0.951672795614249  0.0000
  O3     O3        0.157816541514777    0.524986670010730    0.359822428552187  0.0000
  O1     O1        0.339966217439249    0.444083600083436    0.377119571069799  0.0000
  O3     O3        0.838627227298105    0.469878718498260    0.677600884563621  0.0000
  O1     O1        0.648777545746754    0.535531986487527    0.678254478057448  0.0000
  O1     O1        0.231515978664571    0.212473757046709    0.298738775173970  0.0000
  O3     O3        0.261395570342828    0.751430887261917    0.308419224039712  0.0000
  O1     O1        0.730525506125456    0.228758880235141    0.733183349172648  0.0000
  O3     O3        0.766160618562158    0.759989979294999    0.735000626070095  0.0000
  O1     O1        0.113993093629826    0.331957592363652    0.141169362798489  0.0000
  O1     O1        0.385301310741725    0.637316676098453    0.158984430631182  0.0000
  O1     O1        0.858209943785910    0.231910617549974    0.894118594291282  0.0000
  O1     O1        0.640021894209315    0.746433725758271    0.904476141090778  0.0000
  O3     O3        0.867434288926384    0.619823674228909    0.894618030886729  0.0000
  O1     O1        0.615191832211772    0.354312197584029    0.904146420006643  0.0000
  O3     O3        0.145085075644337    0.729080279046482    0.151859666770946  0.0000
  O1     O1        0.363511245106020    0.235524108002833    0.150583208830125  0.0000
  O1     O1        0.658972067514619    0.527550737595675    0.127147462940657  0.0000
  O1     O1        0.837198140286210    0.444810723668591    0.122649135155014  0.0000
  O1     O1        0.352986822947895    0.455294388340973    0.932265441289918  0.0000
  O1     O1        0.161997391420501    0.531290921094045    0.924666601637147  0.0000
  O1     O1        0.729374405635738    0.210286989525996    0.057708122917070  0.0000
  O1     O1        0.764887006410746    0.769765671489953    0.074259150400212  0.0000
  O1     O1        0.237924180032736    0.223027096193051    0.982554449853089  0.0000
  O1     O1        0.273419673355223    0.764236109692503    0.985642280645573  0.0000
