data_c01051.vasp
_audit_creation_method             Generated by GULP
_audit_author_name                 Salvador R. G. Balestra
_symmetry_space_group_name_H-M     'P 1             '
_symmetry_Int_Tables_number        1

loop_
_symmetry_equiv_pos_site_id
_symmetry_equiv_pos_as_xyz
_cell_length_a                       17.5896
_cell_length_b                        7.8453
_cell_length_c                       10.1080
_cell_angle_alpha                   88.8839
_cell_angle_beta                    90.0697
_cell_angle_gamma                   88.4553

loop_
_atom_site_label
_atom_site_type_symbol
_atom_site_fract_x
_atom_site_fract_y
_atom_site_fract_z
_atom_site_charge
  Ge     Ge        0.052090000000021    0.000000000000000    0.372269999999958  0.0000
  Ge     Ge        0.446423123599877    0.945244767751853    0.350617529152109  0.0000
  Ge     Ge        0.940123283031897    0.969691675463533    0.621889452440555  0.0000
  Ge     Ge        0.545330995043015    0.016427995626978    0.086129726190605  0.0000
  Ge     Ge        0.946153141009324    0.959344379445460    0.120089638208642  0.0000
  Ge     Ge        0.050553571019069    0.023061481978275    0.868819665268351  0.0000
  Ge     Ge        0.145769194395851    0.315102078732352    0.250763097542200  0.0000
  Ge     Ge        0.354375374973265    0.633928009414392    0.264324027674015  0.0000
  Ge     Ge        0.823991988647449    0.269348454058643    0.685187129663029  0.0000
  Ge     Ge        0.639084891393605    0.331242584978929    0.695865170378541  0.0000
  Ge     Ge        0.173494588323240    0.716326112345405    0.257518085729463  0.0000
  Ge     Ge        0.326367945768117    0.231255890870505    0.260310223400712  0.0000
  Ge     Ge        0.643602121563116    0.328429572800482    0.014616165934177  0.0000
  Ge     Ge        0.850190073168795    0.654701861896860    0.999461109869392  0.0000
  Ge     Ge        0.331491637069037    0.248048098911376    0.938789512719882  0.0000
  Ge     Ge        0.174596353400529    0.731762008732271    0.938118776141926  0.0000
  Ge     Ge        0.357112360903366    0.653314803292767    0.944891959078431  0.0000
  Ge     Ge        0.150310593481819    0.332521546500994    0.928128221247135  0.0000
  Ge     Ge        0.671250609499250    0.729016892888899    0.013886127246172  0.0000
  Ge     Ge        0.825074381722079    0.250139869559064    0.004465401368625  0.0000
  Si     Si        0.553153101384788    0.014818508425106    0.589516571358114  0.0000
  Si     Si        0.447009829965538    0.965087464819606    0.828342391650912  0.0000
  Si     Si        0.662788301438753    0.721841840484325    0.698485188971935  0.0000
  Si     Si        0.839274542455782    0.659587360128349    0.682997135649580  0.0000
  O1     O1        0.077962644901937    0.204894079950865    0.334851040624137  0.0000
  O1     O1        0.414657486368706    0.742047662120566    0.365661565349896  0.0000
  O1     O1        0.875122956484587    0.132014381134973    0.588312403500793  0.0000
  O2     O2        0.622700074569714    0.882239500923014    0.622135812532542  0.0000
  O3     O3        0.893480917713784    0.780061854174555    0.599158162230824  0.0000
  O3     O3        0.578880264112853    0.207141910143653    0.604262408278125  0.0000
  O1     O1        0.128038878385698    0.861769622569187    0.355362688843694  0.0000
  O1     O1        0.372437118968350    0.090332933957654    0.366159943666170  0.0000
  O1     O1        0.022024063021713    0.987910772114865    0.534369150606782  0.0000
  O3     O3        0.526745604590140    0.987472222881150    0.439988459439568  0.0000
  O1     O1        0.973665018500341    0.945685820088575    0.282845445940073  0.0000
  O1     O1        0.472142784282781    0.970183379201261    0.185809376739762  0.0000
  O1     O1        0.970254352040872    0.978308243231132    0.784304983029883  0.0000
  O2     O2        0.478232112733294    0.974851266355662    0.677268019625364  0.0000
  O1     O1        0.581422724969047    0.215138184121612    0.109553313363124  0.0000
  O1     O1        0.922297482132350    0.757604920100265    0.072382065156365  0.0000
  O3     O3        0.376114856473957    0.096463458653014    0.842455599194176  0.0000
  O1     O1        0.124216546026614    0.877959926537189    0.844533193142373  0.0000
  O3     O3        0.421706399244532    0.772702428746375    0.856975139296074  0.0000
  O1     O1        0.086589567539201    0.222116694868802    0.837387413389700  0.0000
  O1     O1        0.619923402960889    0.870344944183377    0.103702044178723  0.0000
  O1     O1        0.870265113569137    0.099759278578296    0.102453985189398  0.0000
  O3     O3        0.515392075042580    0.015411517103559    0.922375979907151  0.0000
  O1     O1        0.024192447395138    0.023804793996059    0.033565115345931  0.0000
  O1     O1        0.158553688109629    0.512366586198524    0.316763281966668  0.0000
  O1     O1        0.340468181140830    0.432400570949857    0.321624069148265  0.0000
  O3     O3        0.837453314566939    0.474154752339216    0.621527299029021  0.0000
  O3     O3        0.640995487650992    0.542274681511584    0.636678794792920  0.0000
  O1     O1        0.230567241989772    0.198255183509337    0.255798150899672  0.0000
  O1     O1        0.269459636787257    0.748847882838582    0.256354874722550  0.0000
  O1     O1        0.728188976760716    0.238988592802214    0.684988531310722  0.0000
  O2     O2        0.753977142410508    0.744172351599731    0.689424067364339  0.0000
  O1     O1        0.119698314164915    0.350263607242681    0.089211076613132  0.0000
  O1     O1        0.388780875783520    0.626814216451885    0.104776783960855  0.0000
  O1     O1        0.857525741626693    0.238749572325450    0.844101979126104  0.0000
  O3     O3        0.639429353935986    0.725484163411987    0.851007170704166  0.0000
  O3     O3        0.869633142910465    0.637083470169229    0.832351938775312  0.0000
  O1     O1        0.608426495901454    0.339414994091759    0.854806934903961  0.0000
  O1     O1        0.140264214969585    0.739318317077001    0.097721704335877  0.0000
  O1     O1        0.361211597688493    0.225242945508270    0.100516406656184  0.0000
  O1     O1        0.657104183365077    0.525534517326998    0.076099218606074  0.0000
  O1     O1        0.841423366369000    0.451972834137292    0.061746287511016  0.0000
  O1     O1        0.348926165186859    0.452648111535257    0.882279697857153  0.0000
  O1     O1        0.162201657631386    0.534572260508703    0.868909365455171  0.0000
  O1     O1        0.729299051389387    0.217686917567877    0.004730353569518  0.0000
  O1     O1        0.766168751153206    0.769244074401885    0.020254002891631  0.0000
  O1     O1        0.235651901425885    0.218551405785073    0.931888866820214  0.0000
  O1     O1        0.270824912084764    0.761692739991770    0.942716167861622  0.0000
