data_c01087.vasp
_audit_creation_method             Generated by GULP
_audit_author_name                 Salvador R. G. Balestra
_symmetry_space_group_name_H-M     'P 1             '
_symmetry_Int_Tables_number        1

loop_
_symmetry_equiv_pos_site_id
_symmetry_equiv_pos_as_xyz
_cell_length_a                       17.6218
_cell_length_b                        7.8142
_cell_length_c                       10.1565
_cell_angle_alpha                   88.6102
_cell_angle_beta                    91.2595
_cell_angle_gamma                   91.1333

loop_
_atom_site_label
_atom_site_type_symbol
_atom_site_fract_x
_atom_site_fract_y
_atom_site_fract_z
_atom_site_charge
  Ge     Ge        0.052090000000021    0.000000000000000    0.372269999999958  0.0000
  Ge     Ge        0.444281557696645    0.058442191799494    0.377672427271346  0.0000
  Ge     Ge        0.940867283491808    0.075071888815709    0.612764924787641  0.0000
  Ge     Ge        0.558471944201310    0.009981008941927    0.144692443308028  0.0000
  Ge     Ge        0.446726797990224    0.081655588170102    0.890812026127710  0.0000
  Ge     Ge        0.045535451470611    0.016592130586258    0.872660492069039  0.0000
  Ge     Ge        0.175315236484390    0.286021411777148    0.264231421868598  0.0000
  Ge     Ge        0.327642545120634    0.763410080482836    0.269303135218712  0.0000
  Ge     Ge        0.843243710017870    0.386516320977091    0.684952636580919  0.0000
  Ge     Ge        0.637870732019003    0.717985989263542    0.703341647232674  0.0000
  Ge     Ge        0.819011007676034    0.788996813586294    0.689972859332576  0.0000
  Ge     Ge        0.662392903540535    0.312659324070457    0.703182739229194  0.0000
  Ge     Ge        0.144720821288273    0.687139941785833    0.264119367287127  0.0000
  Ge     Ge        0.676708802250003    0.298845755561959    0.022999925255198  0.0000
  Ge     Ge        0.830879810764761    0.782303671182176    0.009647648213659  0.0000
  Ge     Ge        0.146127098691897    0.702940062524285    0.943152678070761  0.0000
  Ge     Ge        0.327037215745362    0.782925082927412    0.953463203408361  0.0000
  Ge     Ge        0.172214022829249    0.300941412048775    0.939251927103872  0.0000
  Ge     Ge        0.649995854728948    0.702663279585165    0.022937752021786  0.0000
  Ge     Ge        0.856985500190070    0.377797847171110    0.005008765027005  0.0000
  Si     Si        0.542254401263472    0.034430342355895    0.634522230363777  0.0000
  Si     Si        0.948457879383417    0.065680824892014    0.122452043079591  0.0000
  Si     Si        0.349353561457383    0.369136317042071    0.259383485380093  0.0000
  Si     Si        0.344992049562408    0.387860410367235    0.945270266147840  0.0000
  O1     O1        0.131469017687504    0.126070287039229    0.351813757139924  0.0000
  O1     O1        0.374247269105685    0.905335430750305    0.370009441716071  0.0000
  O1     O1        0.904263855110707    0.275716100983312    0.590118649483678  0.0000
  O3     O3        0.571565811785811    0.842280149150993    0.618621584452945  0.0000
  O1     O1        0.867721618040914    0.929541230459426    0.590137163491703  0.0000
  O3     O3        0.611010358507436    0.169265343911962    0.608315165371291  0.0000
  O1     O1        0.078202423298735    0.793220019086158    0.350787724262001  0.0000
  O3     O3        0.417901479179434    0.259487693997669    0.317820573041621  0.0000
  O1     O1        0.020106608744109    0.029095952834399    0.528882675740120  0.0000
  O3     O3        0.469522261002707    0.073436275609026    0.543887019510120  0.0000
  O3     O3        0.974739547329837    0.059677633622021    0.274727177020927  0.0000
  O1     O1        0.526440346759807    0.007900865683731    0.302821982475651  0.0000
  O1     O1        0.968519571164431    0.061680919202725    0.778092079103086  0.0000
  O3     O3        0.520672249717854    0.059521403463478    0.786900809180070  0.0000
  O1     O1        0.634232989197566    0.148256580156674    0.122520439498204  0.0000
  O3     O3        0.877635801158072    0.936253569064538    0.100850926009728  0.0000
  O3     O3        0.411421544975510    0.288696045715824    0.878672854137787  0.0000
  O1     O1        0.082078983014037    0.817448899583631    0.850080860701216  0.0000
  O1     O1        0.377589022895373    0.928638080901150    0.860957340933848  0.0000
  O1     O1        0.119104054054739    0.161921698073531    0.848471628418460  0.0000
  O1     O1        0.586497206706643    0.805709971778527    0.115081542965421  0.0000
  O3     O3        0.926536516547196    0.260203134420411    0.085370579893572  0.0000
  O1     O1        0.481243376345784    0.065707716629798    0.048956833393151  0.0000
  O3     O3        0.019676213626098    0.012879228621784    0.037632401371376  0.0000
  O1     O1        0.153318148830477    0.481732100039417    0.325034540434415  0.0000
  O3     O3        0.345211984586631    0.553924889932882    0.323836048795294  0.0000
  O1     O1        0.828896351536938    0.588713500395096    0.624781172986804  0.0000
  O1     O1        0.645733962682786    0.517544713836208    0.642040681327522  0.0000
  O3     O3        0.272552416088220    0.258763621515141    0.281575343351379  0.0000
  O1     O1        0.231683278606600    0.792112778874391    0.272262674782956  0.0000
  O1     O1        0.757761876168235    0.275486265891242    0.693546890201642  0.0000
  O1     O1        0.723966050499474    0.826983209727282    0.697145007232378  0.0000
  O1     O1        0.148048657547188    0.275515651955620    0.101639892505282  0.0000
  O1     O1        0.360082642049661    0.803446273439165    0.113245960268729  0.0000
  O1     O1        0.879847130002541    0.404683023394116    0.842760493878067  0.0000
  O1     O1        0.613373332959266    0.692414634353289    0.865004511659508  0.0000
  O1     O1        0.857109667923074    0.796727443914061    0.847906297928962  0.0000
  O1     O1        0.638112516265625    0.295404593559985    0.866227731492852  0.0000
  O1     O1        0.116111440295144    0.675952531824640    0.102449770421340  0.0000
  O2     O2        0.356286687390035    0.412539780913461    0.103164385200690  0.0000
  O1     O1        0.664861804100276    0.500236869439334    0.084297476070107  0.0000
  O1     O1        0.850528841947048    0.578422796700993    0.069050467208039  0.0000
  O3     O3        0.338550856774197    0.579657287381028    0.888999811634800  0.0000
  O1     O1        0.155343225964053    0.505089460283098    0.879968247810790  0.0000
  O1     O1        0.772401420155226    0.266199477952172    0.015767835162194  0.0000
  O1     O1        0.735340259921091    0.814304081683947    0.018112185542600  0.0000
  O3     O3        0.268942828878323    0.272737303558050    0.924716084039391  0.0000
  O1     O1        0.231392961256441    0.816571020269167    0.949147761907258  0.0000
