data_c01075.vasp
_audit_creation_method             Generated by GULP
_audit_author_name                 Salvador R. G. Balestra
_symmetry_space_group_name_H-M     'P 1             '
_symmetry_Int_Tables_number        1

loop_
_symmetry_equiv_pos_site_id
_symmetry_equiv_pos_as_xyz
_cell_length_a                       17.4894
_cell_length_b                        7.8554
_cell_length_c                       10.3101
_cell_angle_alpha                   89.9580
_cell_angle_beta                    91.2290
_cell_angle_gamma                   88.2005

loop_
_atom_site_label
_atom_site_type_symbol
_atom_site_fract_x
_atom_site_fract_y
_atom_site_fract_z
_atom_site_charge
  Ge     Ge        0.052090000000021    0.000000000000000    0.372269999999958  0.0000
  Ge     Ge        0.452748113204400    0.945223766290839    0.419272055833503  0.0000
  Ge     Ge        0.948175119093416    0.936397663516810    0.622076323534759  0.0000
  Ge     Ge        0.561412091735336    0.994230944156997    0.176736738681573  0.0000
  Ge     Ge        0.449352670118793    0.940121100627990    0.924770310760821  0.0000
  Ge     Ge        0.059575109015960    0.995281503548801    0.871722978413003  0.0000
  Ge     Ge        0.147716081599774    0.313816925589107    0.298417997422745  0.0000
  Ge     Ge        0.357438960964472    0.637404658161176    0.298671212939312  0.0000
  Ge     Ge        0.827353111142382    0.227293562400211    0.735842708274894  0.0000
  Ge     Ge        0.669095481774094    0.703272186887483    0.744541282648179  0.0000
  Ge     Ge        0.852620130291838    0.627353292911360    0.734646207081617  0.0000
  Ge     Ge        0.644298559258833    0.301675445795689    0.744227164685710  0.0000
  Ge     Ge        0.176611083878065    0.716011530282136    0.299559268082385  0.0000
  Ge     Ge        0.330610597658437    0.232962958689738    0.300916941208339  0.0000
  Ge     Ge        0.654924845167755    0.303241413022459    0.059052670679798  0.0000
  Ge     Ge        0.862372360459429    0.624906888599130    0.049729574591300  0.0000
  Ge     Ge        0.332106693138499    0.242069662316057    0.988750074584699  0.0000
  Ge     Ge        0.146702686765643    0.317374646023099    0.985719149397917  0.0000
  Ge     Ge        0.680066539109826    0.704709497063436    0.059384371040331  0.0000
  Ge     Ge        0.837970817918976    0.224345825770465    0.050140270215462  0.0000
  Si     Si        0.549460212666261    0.988847103252192    0.675682245441661  0.0000
  Si     Si        0.957851490128375    0.933782997138304    0.115235094267224  0.0000
  Si     Si        0.173498661010768    0.708037803659181    0.991597416660711  0.0000
  Si     Si        0.351294903007223    0.632674362382516    0.990461556434672  0.0000
  O1     O1        0.084987335880274    0.201993395678427    0.389568578441957  0.0000
  O1     O1        0.427298578362212    0.741491603915940    0.381572991539825  0.0000
  O1     O1        0.873093202211173    0.077117606993766    0.644247538813493  0.0000
  O3     O3        0.618889581889927    0.853456640491784    0.651380917036505  0.0000
  O1     O1        0.917282330354896    0.734471867181348    0.645739499326249  0.0000
  O3     O3        0.578630361516936    0.179837858573092    0.660294096278196  0.0000
  O1     O1        0.127472611299098    0.856145753944185    0.394766042666554  0.0000
  O1     O1        0.376454745191797    0.084339998288079    0.397681272655085  0.0000
  O1     O1        0.975769024913670    0.958764472755239    0.463573408859245  0.0000
  O3     O3        0.477791981385475    0.955046867616280    0.583053766866755  0.0000
  O3     O3        0.028245523483654    0.972344467283620    0.208309760063343  0.0000
  O1     O1        0.531495876697438    0.996379163450735    0.333953867910731  0.0000
  O1     O1        0.028853656827642    0.976403510092404    0.713992275539399  0.0000
  O3     O3        0.525338152624455    0.959054182773452    0.824605584151616  0.0000
  O1     O1        0.590136778567233    0.196992314980857    0.146364030736236  0.0000
  O3     O3        0.927531433608226    0.744546327308506    0.136412614948816  0.0000
  O1     O1        0.382488640495211    0.101009864354908    0.895685128437156  0.0000
  O3     O3        0.137645307483972    0.859038719884567    0.904268988971693  0.0000
  O3     O3        0.403775231993365    0.747913043931934    0.904488633311479  0.0000
  O1     O1        0.085651822617022    0.202554004187631    0.891158411377106  0.0000
  O1     O1        0.637007381740502    0.852692994832664    0.156719401341824  0.0000
  O3     O3        0.889121059366790    0.072160204591290    0.138675033497140  0.0000
  O1     O1        0.484301987569944    0.941637288951092    0.081221208505068  0.0000
  O3     O3        0.982747748677537    0.946887871745192    0.965433983448388  0.0000
  O1     O1        0.160777796621235    0.513389223239435    0.356710590874931  0.0000
  O1     O1        0.346505293631930    0.436030377485980    0.357030090400385  0.0000
  O1     O1        0.839543239085956    0.427701531493279    0.672823791874690  0.0000
  O1     O1        0.651171169191175    0.502869707543496    0.683139145319487  0.0000
  O1     O1        0.234179684381654    0.201854776259845    0.296830332517613  0.0000
  O1     O1        0.272450325759755    0.752304889750619    0.310291124970950  0.0000
  O1     O1        0.731276662163800    0.193288816905791    0.740381536530743  0.0000
  O1     O1        0.765409840839627    0.736037516123803    0.736701065483583  0.0000
  O1     O1        0.113763341004361    0.321965967094832    0.140596793646773  0.0000
  O3     O3        0.383277124376136    0.618761069483500    0.137697725599945  0.0000
  O1     O1        0.865058714729728    0.218391742648325    0.890992867740403  0.0000
  O1     O1        0.642411180872647    0.714100143699675    0.904007750833960  0.0000
  O1     O1        0.887913065338421    0.605235301633423    0.890567162958950  0.0000
  O1     O1        0.618980185606482    0.321713463611563    0.903134440415122  0.0000
  O3     O3        0.144999576892380    0.722967848375116    0.138216033931269  0.0000
  O1     O1        0.364707808212186    0.213673122151910    0.146090986135091  0.0000
  O1     O1        0.668228026252866    0.502738934037931    0.120209558013923  0.0000
  O1     O1        0.855725756922926    0.424525695479774    0.112332427364795  0.0000
  O3     O3        0.348274898097564    0.445757518645774    0.931060479436003  0.0000
  O3     O3        0.150853561117835    0.526444824699058    0.931851425285904  0.0000
  O1     O1        0.741722589179078    0.192339887649300    0.057151078293185  0.0000
  O1     O1        0.776249052306611    0.736184243547844    0.052244380547434  0.0000
  O1     O1        0.235474937990146    0.217326792916753    0.982587038848958  0.0000
  O2     O2        0.265795701866802    0.718580255695574    0.998453926479711  0.0000
