data_c01083.vasp
_audit_creation_method             Generated by GULP
_audit_author_name                 Salvador R. G. Balestra
_symmetry_space_group_name_H-M     'P 1             '
_symmetry_Int_Tables_number        1

loop_
_symmetry_equiv_pos_site_id
_symmetry_equiv_pos_as_xyz
_cell_length_a                       17.7361
_cell_length_b                        7.8893
_cell_length_c                       10.3311
_cell_angle_alpha                   89.8087
_cell_angle_beta                    91.6173
_cell_angle_gamma                   89.3259

loop_
_atom_site_label
_atom_site_type_symbol
_atom_site_fract_x
_atom_site_fract_y
_atom_site_fract_z
_atom_site_charge
  Ge     Ge        0.052090000000021    0.000000000000000    0.372269999999958  0.0000
  Ge     Ge        0.447588537273545    0.968765709246646    0.372414719378893  0.0000
  Ge     Ge        0.940189207037663    0.998197828644754    0.616143034044781  0.0000
  Ge     Ge        0.559052957269477    0.988505992273879    0.131878226225688  0.0000
  Ge     Ge        0.447047298679756    0.976550885568511    0.879485645724987  0.0000
  Ge     Ge        0.042901847664426    0.002479650997117    0.879098156036560  0.0000
  Ge     Ge        0.153012873066954    0.307793063353136    0.264004474861392  0.0000
  Ge     Ge        0.351445432438098    0.653859601107492    0.264745760916061  0.0000
  Ge     Ge        0.839012643587201    0.308840466374313    0.698191436799789  0.0000
  Ge     Ge        0.644367505355156    0.679124847081161    0.703438756647224  0.0000
  Ge     Ge        0.824895794757110    0.714455278791836    0.692964946198480  0.0000
  Ge     Ge        0.657276346420650    0.270551612382978    0.707271160380889  0.0000
  Ge     Ge        0.169721635855856    0.709274924022187    0.264769074607051  0.0000
  Ge     Ge        0.667443714979440    0.282097533702616    0.019050761133397  0.0000
  Ge     Ge        0.832458325523803    0.719302316514441    0.006721383033370  0.0000
  Ge     Ge        0.324658023720609    0.259632937980606    0.946427022444594  0.0000
  Ge     Ge        0.166833700175619    0.718622412255596    0.950192858657082  0.0000
  Ge     Ge        0.348274519897041    0.662666869944122    0.951671308183451  0.0000
  Ge     Ge        0.144974601906575    0.315091159904687    0.947380601189708  0.0000
  Ge     Ge        0.850134647919423    0.315348206311556    0.012872137974881  0.0000
  Si     Si        0.544489666077250    0.988470958201243    0.628498061586337  0.0000
  Si     Si        0.943656314760774    0.001781235988489    0.125743184606133  0.0000
  Si     Si        0.330489884438196    0.257437232721483    0.255932270746632  0.0000
  Si     Si        0.653866333559108    0.681367040635528    0.009885202166899  0.0000
  O1     O1        0.092737654245568    0.193522152388619    0.354714007023525  0.0000
  O1     O1        0.412617017081507    0.767833639496609    0.360258664792493  0.0000
  O1     O1        0.895371998779692    0.191330624357497    0.600055290268346  0.0000
  O3     O3        0.581874096467045    0.802829361324653    0.612289877309060  0.0000
  O1     O1        0.874797009968370    0.841194102921152    0.592847056469979  0.0000
  O3     O3        0.606014414106280    0.134166261583656    0.609427003948382  0.0000
  O1     O1        0.120189568514413    0.847957294791142    0.357220540581360  0.0000
  O3     O3        0.378107996307933    0.116392919340947    0.334186316081198  0.0000
  O1     O1        0.018412041283013    0.982740802809067    0.526186341544641  0.0000
  O3     O3        0.472998546953808    0.007631084183020    0.533266768366498  0.0000
  O3     O3        0.972389020992408    0.977801074973923    0.273102921471134  0.0000
  O1     O1        0.528202236086694    0.987468431398466    0.287449127180350  0.0000
  O1     O1        0.968406626244552    0.974239174154214    0.777040078370697  0.0000
  O3     O3        0.519302205173482    0.008306925450803    0.776611285279716  0.0000
  O1     O1        0.620971190012242    0.153051228574433    0.121470174238409  0.0000
  O3     O3        0.875449814916547    0.873243234679511    0.098365067203813  0.0000
  O1     O1        0.374520996550419    0.121854423937982    0.855946093603633  0.0000
  O1     O1        0.115636054857373    0.859570753314236    0.857612817372778  0.0000
  O1     O1        0.409752051988765    0.778063969723839    0.862884449874514  0.0000
  O1     O1        0.078527791722922    0.202736864137287    0.862140583993163  0.0000
  O3     O3        0.601535951727278    0.795607974056483    0.097860257760172  0.0000
  O3     O3        0.914275198334644    0.193567181491644    0.101713892316226  0.0000
  O1     O1        0.480589101057962    0.014450923214676    0.034066079681331  0.0000
  O3     O3        0.014049674428407    0.963666998323366    0.036096810023658  0.0000
  O1     O1        0.157900505712223    0.507861902255687    0.324827882101121  0.0000
  O3     O3        0.344395558185698    0.444613484877469    0.314773001870474  0.0000
  O1     O1        0.830285229913559    0.509553166935945    0.637659702895025  0.0000
  O1     O1        0.645429090099190    0.474959940408298    0.649351887299116  0.0000
  O3     O3        0.242303561861942    0.214413716123252    0.262914289579041  0.0000
  O1     O1        0.264279435477592    0.750182695772395    0.269583596322833  0.0000
  O1     O1        0.751266369504604    0.218262030881776    0.705484507026549  0.0000
  O1     O1        0.731200884400473    0.770358851030334    0.693597926596589  0.0000
  O1     O1        0.119534275319918    0.314527632958664    0.106993149566652  0.0000
  O1     O1        0.382701137192003    0.661916735990947    0.109340642584707  0.0000
  O1     O1        0.876455464773253    0.314688453334307    0.854014091290002  0.0000
  O3     O3        0.618390894807251    0.675110444699726    0.864562196703759  0.0000
  O1     O1        0.860832040966505    0.722350131085809    0.849882271271423  0.0000
  O1     O1        0.629760736451156    0.261104830593373    0.865447543585642  0.0000
  O1     O1        0.137128706267566    0.720296440325093    0.107436764154470  0.0000
  O3     O3        0.355128835737422    0.260623844522699    0.107738545028109  0.0000
  O3     O3        0.660216867895903    0.492503756741003    0.067369715599754  0.0000
  O1     O1        0.851057289883046    0.520311036966172    0.068972623712099  0.0000
  O1     O1        0.338074321795408    0.463505242232448    0.891141167342004  0.0000
  O1     O1        0.152720975579371    0.516735049784865    0.890260179140666  0.0000
  O1     O1        0.761660754594747    0.231969375062034    0.020875978076749  0.0000
  O3     O3        0.736586248196283    0.761865649718648    0.003807405934653  0.0000
  O1     O1        0.231009366357613    0.212617153700057    0.937952452495381  0.0000
  O1     O1        0.261110437095634    0.762293449814774    0.950876439918649  0.0000
