data_c01002.vasp
_audit_creation_method             Generated by GULP
_audit_author_name                 Salvador R. G. Balestra
_symmetry_space_group_name_H-M     'P 1             '
_symmetry_Int_Tables_number        1

loop_
_symmetry_equiv_pos_site_id
_symmetry_equiv_pos_as_xyz
_cell_length_a                       17.4766
_cell_length_b                        7.8029
_cell_length_c                       10.3850
_cell_angle_alpha                   90.4153
_cell_angle_beta                    90.6071
_cell_angle_gamma                   88.2538

loop_
_atom_site_label
_atom_site_type_symbol
_atom_site_fract_x
_atom_site_fract_y
_atom_site_fract_z
_atom_site_charge
  Ge     Ge        0.052090000000021    0.000000000000000    0.372269999999958  0.0000
  Ge     Ge        0.448839982316798    0.943402676264750    0.412113652614858  0.0000
  Ge     Ge        0.949787626223694    0.939578655108873    0.624125318931392  0.0000
  Ge     Ge        0.552320562665708    0.000584458032205    0.159771599743690  0.0000
  Ge     Ge        0.954527221954107    0.931446852604944    0.111807099137579  0.0000
  Ge     Ge        0.062908677368122    0.986606164170212    0.866422120326436  0.0000
  Ge     Ge        0.145673324781716    0.311012990897760    0.290765323897369  0.0000
  Ge     Ge        0.356683712170626    0.629828448821445    0.291863814150057  0.0000
  Ge     Ge        0.824389777325586    0.227236154330319    0.732384083338749  0.0000
  Ge     Ge        0.668104021980306    0.711057902986256    0.738061678699437  0.0000
  Ge     Ge        0.851274691522019    0.630101728517501    0.734591894352870  0.0000
  Ge     Ge        0.641849943897211    0.308939810993580    0.733494089669759  0.0000
  Ge     Ge        0.175744202505155    0.719756503309864    0.286181263402295  0.0000
  Ge     Ge        0.327056236156140    0.226687186650618    0.299810263983608  0.0000
  Ge     Ge        0.645442840999291    0.311059761081630    0.046865988804722  0.0000
  Ge     Ge        0.854620868555820    0.618626290311198    0.048875717294692  0.0000
  Ge     Ge        0.333067256278486    0.221130276488143    0.989919549638833  0.0000
  Ge     Ge        0.354421289810835    0.619395284162888    0.978465588452358  0.0000
  Ge     Ge        0.674501940358872    0.713148421215773    0.051421962558652  0.0000
  Ge     Ge        0.825944812236375    0.216687839207780    0.045637394665137  0.0000
  Si     Si        0.546027505405906    0.994501058038590    0.667848465296500  0.0000
  Si     Si        0.448416170577755    0.928572357763521    0.911821835508525  0.0000
  Si     Si        0.174710537562482    0.693887462755866    0.982699834271500  0.0000
  Si     Si        0.151922438946560    0.297220105156485    0.989933271573229  0.0000
  O1     O1        0.081818959952378    0.207357712054704    0.384944462007489  0.0000
  O1     O1        0.424950031916501    0.736801589945724    0.376554730997021  0.0000
  O1     O1        0.873321779224107    0.078989175369794    0.641296731647961  0.0000
  O3     O3        0.617461965776041    0.862779272616404    0.648347993970085  0.0000
  O1     O1        0.920229874278844    0.736611374871837    0.653882782155430  0.0000
  O3     O3        0.574458608051295    0.186982569069407    0.653350353555654  0.0000
  O1     O1        0.129289916481183    0.858307311087913    0.387652680149670  0.0000
  O1     O1        0.370558556664970    0.078713446164306    0.397985660780767  0.0000
  O1     O1        0.976834042262863    0.953195058523797    0.464694071129867  0.0000
  O3     O3        0.478020881997842    0.954032954033489    0.571509747577965  0.0000
  O1     O1        0.028195141625741    0.972604827720215    0.211269451478367  0.0000
  O1     O1        0.521409207513710    0.004443403521130    0.315274945750785  0.0000
  O1     O1        0.031223787479342    0.989468693952827    0.709240456867429  0.0000
  O2     O2        0.516164675405209    0.969829550677837    0.814780295152782  0.0000
  O1     O1        0.576347372840275    0.206806998370683    0.127070228249799  0.0000
  O1     O1        0.922590596234075    0.727118359513307    0.132839295759777  0.0000
  O3     O3        0.377862770865025    0.065021161812693    0.897694509729048  0.0000
  O3     O3        0.130882833713492    0.821466394838058    0.885585091529141  0.0000
  O3     O3        0.415636565558670    0.740383798030096    0.888962918225868  0.0000
  O3     O3        0.098735946919111    0.188811436253885    0.895927810983956  0.0000
  O1     O1        0.630060412664344    0.862709081634851    0.147536435882360  0.0000
  O1     O1        0.877399603529418    0.072062258635637    0.135026553940082  0.0000
  O3     O3        0.479883360100470    0.934521836452584    0.057897141762811  0.0000
  O1     O1        0.983260566764361    0.951473571067689    0.953985319906858  0.0000
  O1     O1        0.157399450639198    0.515698669157138    0.340068047400273  0.0000
  O1     O1        0.341867187016626    0.432200089997857    0.355326606705716  0.0000
  O1     O1        0.838374420188142    0.428879992118873    0.672030987299812  0.0000
  O1     O1        0.650840640633755    0.510668325124159    0.672993889977768  0.0000
  O1     O1        0.230861592294680    0.194707290059886    0.296526738424204  0.0000
  O1     O1        0.272054497142190    0.749957643503055    0.291706909860434  0.0000
  O1     O1        0.727635656886727    0.195394134513157    0.729288722744986  0.0000
  O1     O1        0.764796112801108    0.743269122298963    0.730261045551550  0.0000
  O3     O3        0.114919931260062    0.304837517104315    0.130388554733362  0.0000
  O1     O1        0.385140071059996    0.602362763644386    0.135191522128112  0.0000
  O1     O1        0.856605339130040    0.209089617966690    0.888510907286199  0.0000
  O1     O1        0.640245433252414    0.725231552254247    0.895800043008655  0.0000
  O1     O1        0.881407796527930    0.600894784627248    0.890287911304988  0.0000
  O1     O1        0.615723543635459    0.339277659456770    0.890424012308606  0.0000
  O3     O3        0.144191749363221    0.731324034774468    0.126051520454538  0.0000
  O1     O1        0.364511304263671    0.206678356071045    0.146807077595346  0.0000
  O1     O1        0.660199569667654    0.510058860085039    0.110580942481015  0.0000
  O1     O1        0.840791418424739    0.419754871144219    0.108270968123035  0.0000
  O1     O1        0.352213184158491    0.414827432415194    0.920529981167351  0.0000
  O2     O2        0.161585726880683    0.493921944571210    0.943234422439267  0.0000
  O1     O1        0.729094264263821    0.187178534387083    0.048406011351278  0.0000
  O1     O1        0.771043375237049    0.742605168757051    0.049701668557016  0.0000
  O3     O3        0.234875551363346    0.202287416863984    0.995250904562570  0.0000
  O3     O3        0.264994758198328    0.722246816597928    0.978601628590563  0.0000
