data_c01053.vasp
_audit_creation_method             Generated by GULP
_audit_author_name                 Salvador R. G. Balestra
_symmetry_space_group_name_H-M     'P 1             '
_symmetry_Int_Tables_number        1

loop_
_symmetry_equiv_pos_site_id
_symmetry_equiv_pos_as_xyz
_cell_length_a                       17.6267
_cell_length_b                        7.8110
_cell_length_c                       10.1005
_cell_angle_alpha                   91.2789
_cell_angle_beta                    89.3335
_cell_angle_gamma                   91.0690

loop_
_atom_site_label
_atom_site_type_symbol
_atom_site_fract_x
_atom_site_fract_y
_atom_site_fract_z
_atom_site_charge
  Ge     Ge        0.052090000000021    0.000000000000000    0.372269999999958  0.0000
  Ge     Ge        0.441087216309372    0.051501110085904    0.353808436864911  0.0000
  Ge     Ge        0.941968275359480    0.027906587568230    0.625248554893062  0.0000
  Ge     Ge        0.543767558301058    0.979072948767192    0.092307473668872  0.0000
  Ge     Ge        0.942933314550535    0.037794506053623    0.127348044572877  0.0000
  Ge     Ge        0.049394663398900    0.975227481789750    0.875102517918765  0.0000
  Ge     Ge        0.169127556248412    0.293057016522153    0.262558009235288  0.0000
  Ge     Ge        0.321556260643800    0.768632723123479    0.264176762340227  0.0000
  Ge     Ge        0.639777700382971    0.665355059644057    0.696511135120253  0.0000
  Ge     Ge        0.822100615553965    0.735413002712582    0.691933207992570  0.0000
  Ge     Ge        0.665412896983025    0.264119080676281    0.695181966937342  0.0000
  Ge     Ge        0.350238735583006    0.367659170938223    0.273408698412995  0.0000
  Ge     Ge        0.669308621602385    0.261456526540168    0.017373532507708  0.0000
  Ge     Ge        0.821742641379710    0.750103790922673    0.011764633094277  0.0000
  Ge     Ge        0.355202642228464    0.342992225025206    0.952905320011479  0.0000
  Ge     Ge        0.151679371783308    0.667175670437082    0.931855246014987  0.0000
  Ge     Ge        0.330523958874904    0.750633947192655    0.941347869940497  0.0000
  Ge     Ge        0.173716361048967    0.264293338394045    0.944402461613687  0.0000
  Ge     Ge        0.642348252131082    0.664871223882752    0.018574942938958  0.0000
  Ge     Ge        0.847674606823630    0.343903776313066    0.005678035771620  0.0000
  Si     Si        0.550790381446880    0.975884470581426    0.587898866286626  0.0000
  Si     Si        0.448385331925479    0.031926989493932    0.834757587588454  0.0000
  Si     Si        0.842608904534088    0.340502045048664    0.689049483482889  0.0000
  Si     Si        0.145936803637468    0.688456952811686    0.249034950169809  0.0000
  O1     O1        0.121160349522800    0.155891296720102    0.364225593339048  0.0000
  O1     O1        0.363740871149664    0.915811034087035    0.367925228472594  0.0000
  O3     O3        0.902528750066727    0.228063505287789    0.606146578183470  0.0000
  O3     O3        0.574402389662376    0.782340830266611    0.610858173689075  0.0000
  O1     O1        0.873917417009703    0.871868827599400    0.594937440749537  0.0000
  O3     O3        0.623065164709767    0.101003868114039    0.603609286452331  0.0000
  O3     O3        0.082099765074155    0.798050694842216    0.323365142770454  0.0000
  O1     O1        0.410880839260007    0.257137766210012    0.372152456844871  0.0000
  O1     O1        0.022768234683979    0.994868149067655    0.535455516080376  0.0000
  O3     O3        0.519439309454981    0.994700479609308    0.440491761823278  0.0000
  O1     O1        0.971173099784925    0.048810163726412    0.289497193196116  0.0000
  O1     O1        0.468440964899744    0.026182182928367    0.189087180534622  0.0000
  O1     O1        0.970748068101726    0.018044865530392    0.788066556311084  0.0000
  O2     O2        0.480343841696858    0.031993146311789    0.683415976332153  0.0000
  O1     O1        0.617826287893561    0.123784940384066    0.112504544205823  0.0000
  O1     O1        0.867234593007492    0.898349759675817    0.110555759881960  0.0000
  O3     O3        0.422106873288403    0.224030136686578    0.867670592318952  0.0000
  O1     O1        0.085448464847810    0.773439626755240    0.845943181894459  0.0000
  O3     O3        0.378350577053408    0.898456355977649    0.845709217409611  0.0000
  O1     O1        0.123470506502939    0.118974293669161    0.851057662895095  0.0000
  O1     O1        0.578083889379945    0.776844679696372    0.112661285746667  0.0000
  O1     O1        0.918722338581226    0.240780299044245    0.080853372884914  0.0000
  O3     O3        0.516255661604760    0.978518669774088    0.927141411127396  0.0000
  O1     O1        0.021435481141546    0.975324575381817    0.039269081793337  0.0000
  O3     O3        0.156261549603844    0.504976526430747    0.315246914642508  0.0000
  O1     O1        0.339225064793926    0.571879909561873    0.330358734233255  0.0000
  O3     O3        0.833265015216594    0.526957251843380    0.629708360090412  0.0000
  O1     O1        0.645539119568389    0.460247365611899    0.631544209124397  0.0000
  O1     O1        0.264621739077252    0.257693269727222    0.267482973822274  0.0000
  O3     O3        0.224696648363125    0.798033282647796    0.256027404223783  0.0000
  O3     O3        0.762677168562714    0.236520652847267    0.690667216071698  0.0000
  O1     O1        0.726426070394393    0.770075369403924    0.689586464534511  0.0000
  O1     O1        0.137952693950632    0.256434999192692    0.104033699553259  0.0000
  O1     O1        0.356855159294516    0.774579320450625    0.104316167241682  0.0000
  O3     O3        0.869636567008142    0.369375040826958    0.839649524853913  0.0000
  O1     O1        0.611734932948456    0.641460191302638    0.857415316873557  0.0000
  O1     O1        0.854450851036676    0.764544691352756    0.850981575808186  0.0000
  O1     O1        0.637046255174737    0.249749688154092    0.856883698155887  0.0000
  O3     O3        0.125153966366970    0.648351300265960    0.097529993377947  0.0000
  O1     O1        0.384532045389220    0.372702089390060    0.113045921659915  0.0000
  O1     O1        0.656724775277432    0.467185012884374    0.079694046875454  0.0000
  O1     O1        0.836603131377740    0.546901722324025    0.069163284571461  0.0000
  O1     O1        0.347158843692191    0.542918473192321    0.887862156688744  0.0000
  O1     O1        0.162739631882417    0.462646709442306    0.875194022172646  0.0000
  O1     O1        0.764854813984501    0.224456691088301    0.020353849480751  0.0000
  O1     O1        0.725927848446400    0.783128466235145    0.012412867321320  0.0000
  O1     O1        0.269789319740905    0.232649417635078    0.949868347730288  0.0000
  O1     O1        0.235390346919149    0.784058029323183    0.926961444785965  0.0000
