data_c01021.vasp
_audit_creation_method             Generated by GULP
_audit_author_name                 Salvador R. G. Balestra
_symmetry_space_group_name_H-M     'P 1             '
_symmetry_Int_Tables_number        1

loop_
_symmetry_equiv_pos_site_id
_symmetry_equiv_pos_as_xyz
_cell_length_a                       17.6786
_cell_length_b                        7.8537
_cell_length_c                       10.4684
_cell_angle_alpha                   90.0531
_cell_angle_beta                    89.6442
_cell_angle_gamma                   90.0499

loop_
_atom_site_label
_atom_site_type_symbol
_atom_site_fract_x
_atom_site_fract_y
_atom_site_fract_z
_atom_site_charge
  Ge     Ge        0.052090000000021    0.000000000000000    0.372269999999958  0.0000
  Ge     Ge        0.446431823506058    0.977605990221050    0.388234318141947  0.0000
  Ge     Ge        0.947883929668905    0.995244328378597    0.626218937400146  0.0000
  Ge     Ge        0.555225642110193    0.972497621415437    0.136132754362217  0.0000
  Ge     Ge        0.945439974338393    0.003789941807228    0.126143238777103  0.0000
  Ge     Ge        0.054671487205164    0.999279989825601    0.879855343702018  0.0000
  Ge     Ge        0.148498412201860    0.316494163208277    0.261657690882491  0.0000
  Ge     Ge        0.345720897875903    0.668723516905556    0.275730970047257  0.0000
  Ge     Ge        0.844987610420832    0.308769460801475    0.700173059537069  0.0000
  Ge     Ge        0.642723224079603    0.656824498275725    0.710201657818242  0.0000
  Ge     Ge        0.824424850939606    0.714769421007575    0.700286099037926  0.0000
  Ge     Ge        0.663032167168001    0.251191537601413    0.711971134375633  0.0000
  Ge     Ge        0.329758068507478    0.262676466217824    0.273226674221208  0.0000
  Ge     Ge        0.672463891832885    0.250625008564334    0.021258901966173  0.0000
  Ge     Ge        0.825206014491870    0.724270414354105    0.010011780611684  0.0000
  Ge     Ge        0.339148410385050    0.274312803007537    0.964930947546531  0.0000
  Ge     Ge        0.175704628992046    0.718749948999414    0.956275594438929  0.0000
  Ge     Ge        0.154623217373372    0.315636211549297    0.952612434821382  0.0000
  Ge     Ge        0.644718434553387    0.653777397937218    0.020728985488961  0.0000
  Ge     Ge        0.853056879109110    0.319050850352621    0.010273823252713  0.0000
  Si     Si        0.545630645513566    0.967868352915830    0.639562732523788  0.0000
  Si     Si        0.449940033386070    0.986368471097469    0.892661832568687  0.0000
  Si     Si        0.169243814676803    0.716964559218698    0.260781464653640  0.0000
  Si     Si        0.354205831047355    0.674290654688419    0.971786438813188  0.0000
  O1     O1        0.086329828668545    0.203295565330739    0.353680778504718  0.0000
  O1     O1        0.408540260014773    0.779081822406214    0.365374670591883  0.0000
  O1     O1        0.907166742429675    0.192279620815830    0.609325327393949  0.0000
  O3     O3        0.581068771295866    0.781171595768844    0.621924088874166  0.0000
  O1     O1        0.877089003865922    0.847318089138067    0.605641441447075  0.0000
  O3     O3        0.611148934493979    0.108252116398508    0.622554221393342  0.0000
  O3     O3        0.121205513312838    0.850504830397372    0.341908122891315  0.0000
  O1     O1        0.375858138916034    0.123874797477606    0.370187352028237  0.0000
  O1     O1        0.024226620489819    0.971108535966838    0.527982419981464  0.0000
  O3     O3        0.478031155748293    0.997352370232739    0.543294966307898  0.0000
  O1     O1        0.972592088330936    0.976508094453346    0.281711391587304  0.0000
  O1     O1        0.521162981919390    0.007898241821669    0.286812801878054  0.0000
  O1     O1        0.981144185972097    0.968618121241561    0.779873682784338  0.0000
  O2     O2        0.514606399449830    0.986124982635406    0.785122684526666  0.0000
  O1     O1        0.632332159911885    0.102529827213896    0.118580588306059  0.0000
  O1     O1        0.869673249374170    0.872279925332273    0.101442983666990  0.0000
  O3     O3        0.388676152394153    0.133958525665166    0.868264322427885  0.0000
  O1     O1        0.130102308819633    0.859991259670885    0.862804402403756  0.0000
  O2     O2        0.411641712518942    0.798476135408154    0.895477796984553  0.0000
  O1     O1        0.093974614473993    0.198017863071798    0.861427570763258  0.0000
  O1     O1        0.581751171844736    0.764832225440315    0.113619986478408  0.0000
  O1     O1        0.918963944114633    0.211041178019713    0.096684445256813  0.0000
  O3     O3        0.486469243475522    0.030703872464116    0.028054709680052  0.0000
  O1     O1        0.022053878057278    0.957499127299434    0.031829807868422  0.0000
  O3     O3        0.156420869012704    0.525420153190090    0.312927190486691  0.0000
  O1     O1        0.340482726750404    0.466330973547735    0.331580849738258  0.0000
  O1     O1        0.834427713998713    0.510234665193222    0.642572729815091  0.0000
  O1     O1        0.649300090343340    0.453742932514666    0.651865119337105  0.0000
  O1     O1        0.235178389207796    0.218889293992671    0.268829233107450  0.0000
  O3     O3        0.257398515194138    0.763994602256114    0.274120022946693  0.0000
  O1     O1        0.758222643640428    0.207691407252604    0.703568911927898  0.0000
  O1     O1        0.729375544325934    0.757566411827623    0.703213162550616  0.0000
  O1     O1        0.118906189059161    0.308899062411142    0.106290951228627  0.0000
  O3     O3        0.378925031462706    0.667381713073940    0.119114800314600  0.0000
  O1     O1        0.880923395059111    0.321384354568043    0.852464229959796  0.0000
  O1     O1        0.613109890328132    0.642328495273693    0.866037811404667  0.0000
  O1     O1        0.856872932199083    0.730664279870963    0.854660067177975  0.0000
  O1     O1        0.636112880771839    0.243006387778400    0.869409905337375  0.0000
  O3     O3        0.144201947633669    0.721484377296106    0.113707582073212  0.0000
  O1     O1        0.366215620660462    0.252892562131873    0.120881935817343  0.0000
  O1     O1        0.656965631872221    0.453320018324106    0.080214922590352  0.0000
  O1     O1        0.842935921174653    0.521870916207549    0.067081106389792  0.0000
  O3     O3        0.354282302753882    0.484212387011880    0.915530833222206  0.0000
  O1     O1        0.158808510181653    0.518918160014586    0.896479811387689  0.0000
  O1     O1        0.767754581290041    0.214017356309921    0.014569306285328  0.0000
  O1     O1        0.729837933095340    0.760390390246558    0.014908521977334  0.0000
  O1     O1        0.244575347512084    0.231344066379769    0.954258101747879  0.0000
  O3     O3        0.271654874725586    0.757251055271147    0.960410065075960  0.0000
