data_c01194.vasp
_audit_creation_method             Generated by GULP
_audit_author_name                 Salvador R. G. Balestra
_symmetry_space_group_name_H-M     'P 1             '
_symmetry_Int_Tables_number        1

loop_
_symmetry_equiv_pos_site_id
_symmetry_equiv_pos_as_xyz
_cell_length_a                       17.5351
_cell_length_b                        7.8306
_cell_length_c                       10.2353
_cell_angle_alpha                   88.9917
_cell_angle_beta                    89.5544
_cell_angle_gamma                   91.6557

loop_
_atom_site_label
_atom_site_type_symbol
_atom_site_fract_x
_atom_site_fract_y
_atom_site_fract_z
_atom_site_charge
  Ge     Ge        0.052090000000021    0.000000000000000    0.372269999999958  0.0000
  Ge     Ge        0.452104410556606    0.060639223137551    0.407200466688888  0.0000
  Ge     Ge        0.947781486529256    0.058587677709663    0.624631219589566  0.0000
  Ge     Ge        0.952534108539917    0.067786044762467    0.114454953109695  0.0000
  Ge     Ge        0.455949386098725    0.081455965862869    0.906138717748408  0.0000
  Ge     Ge        0.061379871694901    0.016435766440788    0.864443519895966  0.0000
  Ge     Ge        0.176489880884348    0.285644722429671    0.292674579870092  0.0000
  Ge     Ge        0.329919909237057    0.776957278108225    0.300355419537974  0.0000
  Ge     Ge        0.855590935781120    0.375936758020635    0.738619578783206  0.0000
  Ge     Ge        0.649905789085364    0.703166498157960    0.727967645243449  0.0000
  Ge     Ge        0.671655841392214    0.304182168065123    0.731551152353149  0.0000
  Ge     Ge        0.150083670052328    0.690343968390319    0.299252832722847  0.0000
  Ge     Ge        0.357691109995241    0.374178288019282    0.290646143985848  0.0000
  Ge     Ge        0.669878085987916    0.299911149400014    0.048777748965529  0.0000
  Ge     Ge        0.825925054462892    0.779712232559857    0.047671113141468  0.0000
  Ge     Ge        0.359130375834134    0.394652882285775    0.972469618879691  0.0000
  Ge     Ge        0.331224876289742    0.792932301443581    0.983661209136184  0.0000
  Ge     Ge        0.177322306778448    0.311077246881772    0.977181812464790  0.0000
  Ge     Ge        0.644257989993550    0.702906423310086    0.044360226719989  0.0000
  Ge     Ge        0.852508809985583    0.378844337650190    0.054358253399920  0.0000
  Si     Si        0.556992057342042    0.016701989731599    0.655320376749632  0.0000
  Si     Si        0.554259918453948    0.009739985579059    0.158015939108012  0.0000
  Si     Si        0.829595252772141    0.770623856929347    0.738176283957248  0.0000
  Si     Si        0.153148868500177    0.708525844578963    0.988647580077504  0.0000
  O1     O1        0.127296346729558    0.143495089995744    0.392253954797731  0.0000
  O1     O1        0.376385201797466    0.919834738990483    0.398300140349450  0.0000
  O1     O1        0.919860981796583    0.263665357047425    0.649840881938715  0.0000
  O3     O3        0.591026958801405    0.830582476504703    0.635618820761093  0.0000
  O3     O3        0.872225693261693    0.916815884985712    0.652797207795500  0.0000
  O3     O3        0.624361661848221    0.158223704736362    0.634190739665496  0.0000
  O1     O1        0.083630192995803    0.795106719863590    0.388712306151940  0.0000
  O1     O1        0.424257406882973    0.264637030501180    0.377477995385785  0.0000
  O1     O1        0.973463326856825    0.041283840451488    0.462415356633021  0.0000
  O3     O3        0.485028583561776    0.050565532633779    0.566497087640582  0.0000
  O1     O1        0.027683312828866    0.022989591460948    0.209217144146659  0.0000
  O3     O3        0.526602672662067    0.005079632542149    0.307338429845879  0.0000
  O1     O1        0.029598812597725    0.008737888400125    0.705924559223452  0.0000
  O3     O3        0.529984934149381    0.029557360819407    0.806822917519592  0.0000
  O3     O3        0.626411882688822    0.139679277739909    0.142072545753691  0.0000
  O1     O1        0.876921535181664    0.922931972033340    0.135402733545805  0.0000
  O1     O1        0.424340580466060    0.285176935790713    0.883231500281060  0.0000
  O3     O3        0.093106338178628    0.815490309138436    0.906820609211203  0.0000
  O1     O1        0.377734279919333    0.945627815259197    0.890874292015074  0.0000
  O1     O1        0.131067830565053    0.174064884854806    0.874609419246226  0.0000
  O3     O3        0.575817262711487    0.817544078457226    0.122825816327052  0.0000
  O1     O1        0.916052555395268    0.265549480596079    0.144190825297632  0.0000
  O3     O3        0.485743535752964    0.072285716649691    0.067562409658684  0.0000
  O1     O1        0.982298929790250    0.063760078028007    0.953742880923514  0.0000
  O1     O1        0.161443475691738    0.486946688794550    0.353799467338230  0.0000
  O1     O1        0.343349330358005    0.570786384211564    0.355682194275368  0.0000
  O3     O3        0.845498869563874    0.584322732545925    0.680596885821317  0.0000
  O1     O1        0.655314260486747    0.504272136158078    0.665094542742957  0.0000
  O1     O1        0.272953136498131    0.255450150780485    0.291484610719566  0.0000
  O1     O1        0.233747174570056    0.809979644378795    0.305118184719792  0.0000
  O1     O1        0.767670647978114    0.272747315476768    0.731483943171657  0.0000
  O3     O3        0.739470475801421    0.801583257464383    0.737648797570268  0.0000
  O1     O1        0.144144795783740    0.275083118114791    0.133785076381767  0.0000
  O1     O1        0.362641763374081    0.802683556007714    0.142197915950157  0.0000
  O1     O1        0.886347095782567    0.386521919141060    0.895611245536603  0.0000
  O1     O1        0.616538244315512    0.680595609357641    0.885220296199440  0.0000
  O3     O3        0.858711721190160    0.779646435876018    0.886748834362025  0.0000
  O1     O1        0.638158875383735    0.291999075029516    0.890183398701344  0.0000
  O3     O3        0.123202660761721    0.679442828114467    0.136182803611159  0.0000
  O1     O1        0.387747221833301    0.407170352190502    0.132659985964348  0.0000
  O1     O1        0.652247811332872    0.500188640267638    0.108647618070356  0.0000
  O1     O1        0.840253041603845    0.577947681120673    0.112611693364530  0.0000
  O1     O1        0.349962499617261    0.598534383685868    0.915495077834382  0.0000
  O3     O3        0.164560007342548    0.523030505895922    0.928123486667869  0.0000
  O1     O1        0.765807697043381    0.269238825035446    0.049524140423608  0.0000
  O1     O1        0.730154974222798    0.813871406259515    0.051781423763126  0.0000
  O1     O1        0.273463943471590    0.280858941047585    0.972034269161224  0.0000
  O3     O3        0.233262699558411    0.816041661202083    0.988319362713967  0.0000
