data_c01136.vasp
_audit_creation_method             Generated by GULP
_audit_author_name                 Salvador R. G. Balestra
_symmetry_space_group_name_H-M     'P 1             '
_symmetry_Int_Tables_number        1

loop_
_symmetry_equiv_pos_site_id
_symmetry_equiv_pos_as_xyz
_cell_length_a                       17.5590
_cell_length_b                        7.8207
_cell_length_c                       10.2401
_cell_angle_alpha                   90.9536
_cell_angle_beta                    91.3150
_cell_angle_gamma                   88.6030

loop_
_atom_site_label
_atom_site_type_symbol
_atom_site_fract_x
_atom_site_fract_y
_atom_site_fract_z
_atom_site_charge
  Ge     Ge        0.052090000000021    0.000000000000000    0.372269999999958  0.0000
  Ge     Ge        0.447725821464317    0.946244092151994    0.343861438756713  0.0000
  Ge     Ge        0.943564936620285    0.933356571665344    0.619484433990244  0.0000
  Ge     Ge        0.546989190042741    0.004543515729771    0.084501745356123  0.0000
  Ge     Ge        0.440267933586315    0.943286444053706    0.824825372765775  0.0000
  Ge     Ge        0.143252394473786    0.312815621289358    0.259922666314644  0.0000
  Ge     Ge        0.353411538561847    0.629846392639345    0.260355135685924  0.0000
  Ge     Ge        0.821829759950662    0.220374722157677    0.696840615860954  0.0000
  Ge     Ge        0.662273042256786    0.686762977404146    0.697415946982043  0.0000
  Ge     Ge        0.845694169624874    0.619432668634076    0.687059585144589  0.0000
  Ge     Ge        0.172779830530811    0.713477225584612    0.263737764526247  0.0000
  Ge     Ge        0.323862742012031    0.224642131846156    0.256554074836257  0.0000
  Ge     Ge        0.649967457567060    0.310307335110414    0.022190230240003  0.0000
  Ge     Ge        0.852138957202030    0.635397666622595    0.005200086217823  0.0000
  Ge     Ge        0.319397530158831    0.228183902011100    0.940115373674870  0.0000
  Ge     Ge        0.162916628685664    0.712722816870604    0.947599709130035  0.0000
  Ge     Ge        0.345653430786842    0.635386305966216    0.943383006387014  0.0000
  Ge     Ge        0.137766824262507    0.310818503107653    0.943327296123404  0.0000
  Ge     Ge        0.670654690783370    0.713724701552970    0.012482632843305  0.0000
  Ge     Ge        0.829760392595353    0.229606399339092    0.014844611304775  0.0000
  Si     Si        0.550463703709847    0.984323117152559    0.591876812764540  0.0000
  Si     Si        0.946575961079561    0.942323484218152    0.122066208773721  0.0000
  Si     Si        0.042311660052233    0.998458966366062    0.876706134384953  0.0000
  Si     Si        0.643495631279744    0.291291669821965    0.710474362457576  0.0000
  O1     O1        0.077931729196109    0.205892354424209    0.347678169321270  0.0000
  O1     O1        0.417713413334700    0.740642664097582    0.356283662984594  0.0000
  O1     O1        0.866042734203040    0.070500430940366    0.601140710792305  0.0000
  O3     O3        0.612142840707917    0.831027591968471    0.601150672124812  0.0000
  O1     O1        0.909139752558704    0.731551923983966    0.598558726899083  0.0000
  O2     O2        0.582161489299069    0.167469631130979    0.640256123365832  0.0000
  O1     O1        0.129360676074125    0.864677221741933    0.360399984501135  0.0000
  O1     O1        0.371641612562882    0.086778219995532    0.358678427133634  0.0000
  O1     O1        0.018531674379000    0.981779898991489    0.527730481684304  0.0000
  O3     O3        0.525375425331368    0.997502701074246    0.440226236696307  0.0000
  O3     O3        0.977241742336813    0.941235799636645    0.269941873464738  0.0000
  O1     O1        0.473943441546929    0.967996963882589    0.183041726239205  0.0000
  O3     O3        0.972287826067190    0.955700439848917    0.783077763499673  0.0000
  O3     O3        0.473567182112909    0.943234111034334    0.666329588735311  0.0000
  O1     O1        0.583689058230058    0.205883341930898    0.106984161812158  0.0000
  O3     O3        0.919890538115083    0.751721666407805    0.089273015496655  0.0000
  O1     O1        0.363932597990639    0.083044072685242    0.839670892659607  0.0000
  O3     O3        0.111608088828225    0.862176575669574    0.857498099302918  0.0000
  O1     O1        0.409881392920219    0.740337352429784    0.853471527294765  0.0000
  O3     O3        0.072439240246991    0.188522838416162    0.855687108224390  0.0000
  O1     O1        0.621324673059698    0.858212165255675    0.105263009743379  0.0000
  O3     O3        0.877961600670612    0.080380525520849    0.109210792635480  0.0000
  O1     O1        0.514985873909702    0.996984629843952    0.924459850610426  0.0000
  O2     O2        0.015467775024440    0.992427532023803    0.028033496093730  0.0000
  O1     O1        0.158895439267188    0.512213366334834    0.324867313215878  0.0000
  O1     O1        0.340442188583643    0.429446132024867    0.315529445042945  0.0000
  O1     O1        0.837482872432431    0.415545802766826    0.628430090218437  0.0000
  O3     O3        0.647265340806669    0.476149712953126    0.644095359688712  0.0000
  O1     O1        0.227506230053655    0.194385967030075    0.256909956454697  0.0000
  O1     O1        0.268559681091879    0.746462491298368    0.259677063019501  0.0000
  O3     O3        0.724601062948008    0.192110759961854    0.704105962788965  0.0000
  O1     O1        0.757672355815655    0.722381505950671    0.686765216119131  0.0000
  O1     O1        0.110568601167929    0.338287292518733    0.102313844841590  0.0000
  O1     O1        0.381546831248623    0.619410860534514    0.100529247406158  0.0000
  O1     O1        0.856545296749277    0.212374830432347    0.855176992252318  0.0000
  O1     O1        0.633901782831935    0.719055949116580    0.854563647887949  0.0000
  O1     O1        0.878271475431718    0.607061703293312    0.846416782989133  0.0000
  O3     O3        0.621352954023942    0.328752683141549    0.858721368486026  0.0000
  O1     O1        0.135672152802693    0.723680441915746    0.107320405784168  0.0000
  O1     O1        0.354667771130903    0.207848533265363    0.097755071874767  0.0000
  O1     O1        0.660807293561386    0.513952311573252    0.078854922595520  0.0000
  O1     O1        0.844971193954628    0.436042646680452    0.070612120868738  0.0000
  O1     O1        0.332454979443851    0.431849168344519    0.884559695307213  0.0000
  O1     O1        0.145790129562416    0.511293722006483    0.881785210919186  0.0000
  O1     O1        0.734242120017778    0.194134190757843    0.026662008126986  0.0000
  O1     O1        0.766637277864636    0.747682215555109    0.007749870953155  0.0000
  O1     O1        0.223066716921882    0.198415882191174    0.942350658140922  0.0000
  O1     O1        0.259116703072349    0.745411851468738    0.942545935382424  0.0000
