data_c01171.vasp
_audit_creation_method             Generated by GULP
_audit_author_name                 Salvador R. G. Balestra
_symmetry_space_group_name_H-M     'P 1             '
_symmetry_Int_Tables_number        1

loop_
_symmetry_equiv_pos_site_id
_symmetry_equiv_pos_as_xyz
_cell_length_a                       17.5930
_cell_length_b                        7.8097
_cell_length_c                       10.1891
_cell_angle_alpha                   90.5364
_cell_angle_beta                    89.7948
_cell_angle_gamma                   91.0394

loop_
_atom_site_label
_atom_site_type_symbol
_atom_site_fract_x
_atom_site_fract_y
_atom_site_fract_z
_atom_site_charge
  Ge     Ge        0.052090000000021    0.000000000000000    0.372269999999958  0.0000
  Ge     Ge        0.445799919906802    0.053710013511180    0.377447563753533  0.0000
  Ge     Ge        0.945454453290623    0.031174497115076    0.624766504254456  0.0000
  Ge     Ge        0.936480201652692    0.037540804491761    0.136080648512646  0.0000
  Ge     Ge        0.452381680350282    0.043536922131611    0.876798615975800  0.0000
  Ge     Ge        0.045160696405209    0.979911230970064    0.885589492634230  0.0000
  Ge     Ge        0.169831688889527    0.295388648325675    0.269123230909820  0.0000
  Ge     Ge        0.322829931511078    0.770336331125509    0.265168880069929  0.0000
  Ge     Ge        0.844700232103864    0.342835341514625    0.697891156299832  0.0000
  Ge     Ge        0.641019482289076    0.674040986336082    0.701140582907011  0.0000
  Ge     Ge        0.822322762233796    0.750132391635406    0.705121779629582  0.0000
  Ge     Ge        0.664636473339766    0.269129010632505    0.698046491568479  0.0000
  Ge     Ge        0.352651354966474    0.368682752582065    0.270028332258784  0.0000
  Ge     Ge        0.665373510076699    0.269451523522284    0.017533355242178  0.0000
  Ge     Ge        0.821448555935655    0.741069196768282    0.020580892199035  0.0000
  Ge     Ge        0.350510503565446    0.353246644476339    0.950922516125880  0.0000
  Ge     Ge        0.149230805241372    0.670003098674217    0.939329609090171  0.0000
  Ge     Ge        0.325742095463278    0.759484456532011    0.944228543825038  0.0000
  Ge     Ge        0.170992305004852    0.266853764427930    0.953214133895655  0.0000
  Ge     Ge        0.638619998743809    0.671388308013531    0.018082574019905  0.0000
  Si     Si        0.549617596624984    0.984498193223057    0.621785840837671  0.0000
  Si     Si        0.551009900398761    0.986338937462799    0.131516288077049  0.0000
  Si     Si        0.146935330998779    0.688324955473011    0.256209676659559  0.0000
  Si     Si        0.843367516910581    0.341915455785042    0.010931437332893  0.0000
  O1     O1        0.121693434211474    0.154525049354286    0.368460676478453  0.0000
  O1     O1        0.365959386368781    0.929278451646345    0.354490680071962  0.0000
  O1     O1        0.910505675767466    0.234234181468699    0.607670773313611  0.0000
  O3     O3        0.581180093056010    0.794337183148841    0.604054219048152  0.0000
  O1     O1        0.871440883026283    0.886060059716805    0.604615571036089  0.0000
  O3     O3        0.615504889935310    0.126436392750551    0.597321164659856  0.0000
  O3     O3        0.080780437691193    0.799529169734625    0.320263880854955  0.0000
  O1     O1        0.419416049234413    0.261195175165803    0.358688061995687  0.0000
  O1     O1        0.023751863246000    0.986159984498602    0.534716498087111  0.0000
  O3     O3        0.475951384449640    0.019824044096786    0.536930953792430  0.0000
  O1     O1        0.969355705658625    0.053168248299003    0.294411768372745  0.0000
  O3     O3        0.522272702518508    0.998254662300287    0.280475087759726  0.0000
  O1     O1        0.970170552634746    0.019071083684820    0.788807645328658  0.0000
  O3     O3        0.527880922568531    0.005058625243342    0.776175062247742  0.0000
  O3     O3        0.624507469952512    0.109101822509903    0.109878853394275  0.0000
  O1     O1        0.867119626422030    0.880766060321199    0.124648155849610  0.0000
  O1     O1        0.414806993115171    0.242844910819569    0.858051643639567  0.0000
  O1     O1        0.079046204551905    0.775287073094970    0.861712094030354  0.0000
  O1     O1        0.381462271357311    0.892903551695946    0.852444284572340  0.0000
  O1     O1        0.119912870883574    0.122262835648548    0.861965393852252  0.0000
  O3     O3        0.572582627697266    0.790377585581104    0.102951620560627  0.0000
  O3     O3        0.903747558373113    0.236984633906348    0.092449980007930  0.0000
  O3     O3        0.482642354830710    0.043326388437581    0.038932996344834  0.0000
  O1     O1        0.015638038832199    0.988760174036675    0.046663901472784  0.0000
  O3     O3        0.154954743185825    0.504439558148806    0.324492241994397  0.0000
  O1     O1        0.343518772901478    0.573737567537492    0.328778065295251  0.0000
  O1     O1        0.833933960723069    0.545458173370701    0.643103966848127  0.0000
  O1     O1        0.651300660245693    0.472872341544213    0.637864578020051  0.0000
  O1     O1        0.265849536112764    0.263241387922030    0.275343576511685  0.0000
  O3     O3        0.225208816076288    0.798136165032199    0.268673650663648  0.0000
  O1     O1        0.759812945734795    0.228955984861109    0.692226490087137  0.0000
  O1     O1        0.726445145352818    0.784883047235268    0.709306785455381  0.0000
  O1     O1        0.137728314425245    0.257621677742803    0.112633729190469  0.0000
  O1     O1        0.353287742160914    0.781427772929134    0.105484168105282  0.0000
  O3     O3        0.871545159663419    0.360605755788919    0.861623614567175  0.0000
  O1     O1        0.607715378927103    0.652074061230617    0.858800974131237  0.0000
  O1     O1        0.855721710207338    0.768437882803516    0.864156504984219  0.0000
  O1     O1        0.633697052378409    0.260511046786904    0.858546034331802  0.0000
  O3     O3        0.130328427683400    0.642687654412744    0.105476361295940  0.0000
  O1     O1        0.381876275206255    0.379373613150754    0.109610146982343  0.0000
  O1     O1        0.644801458396048    0.468541899976431    0.080778686703546  0.0000
  O3     O3        0.833723546283438    0.530968579071138    0.071186289326924  0.0000
  O1     O1        0.336157998381270    0.551361485423946    0.888810387999836  0.0000
  O1     O1        0.159536315112451    0.466164533734165    0.883087754721572  0.0000
  O3     O3        0.762581531535429    0.240511603127593    0.014267879222087  0.0000
  O1     O1        0.725453156665959    0.774267290721849    0.021611116938606  0.0000
  O1     O1        0.267060598065175    0.232779477048578    0.955928231647666  0.0000
  O1     O1        0.230535371541943    0.796178997165302    0.929129635945220  0.0000
