data_c01103.vasp
_audit_creation_method             Generated by GULP
_audit_author_name                 Salvador R. G. Balestra
_symmetry_space_group_name_H-M     'P 1             '
_symmetry_Int_Tables_number        1

loop_
_symmetry_equiv_pos_site_id
_symmetry_equiv_pos_as_xyz
_cell_length_a                       17.5685
_cell_length_b                        7.8213
_cell_length_c                       10.2051
_cell_angle_alpha                   90.2294
_cell_angle_beta                    91.4274
_cell_angle_gamma                   91.6354

loop_
_atom_site_label
_atom_site_type_symbol
_atom_site_fract_x
_atom_site_fract_y
_atom_site_fract_z
_atom_site_charge
  Ge     Ge        0.052090000000021    0.000000000000000    0.372269999999958  0.0000
  Ge     Ge        0.453626878623544    0.061405109557922    0.392721879033292  0.0000
  Ge     Ge        0.944253030908758    0.038231717981349    0.620507280841385  0.0000
  Ge     Ge        0.554118779949171    0.001462568694064    0.134491361694817  0.0000
  Ge     Ge        0.447749269212445    0.058620073648469    0.874979554068305  0.0000
  Ge     Ge        0.058877035049165    0.996429387564393    0.868908591040620  0.0000
  Ge     Ge        0.175926463506746    0.282995552154247    0.299048022281332  0.0000
  Ge     Ge        0.329693849735592    0.777067127824986    0.309750760526463  0.0000
  Ge     Ge        0.847444715562978    0.352314745670081    0.736663139596705  0.0000
  Ge     Ge        0.642736581108871    0.681611101823306    0.750072633506076  0.0000
  Ge     Ge        0.826204687045234    0.750418966507281    0.730278684238323  0.0000
  Ge     Ge        0.150646973610071    0.687722866213209    0.303403578753989  0.0000
  Ge     Ge        0.356357258755829    0.371497825322486    0.307836148038612  0.0000
  Ge     Ge        0.679405160848880    0.293326340227176    0.067688728358629  0.0000
  Ge     Ge        0.838032156271701    0.770480485705963    0.046145659748402  0.0000
  Ge     Ge        0.358436367799335    0.374903065666572    0.989288787671944  0.0000
  Ge     Ge        0.327714339469071    0.776603344552189    0.991340219374420  0.0000
  Ge     Ge        0.175800270592381    0.293739209727572    0.982498499766553  0.0000
  Ge     Ge        0.656107443881641    0.695747095297515    0.064535855616158  0.0000
  Ge     Ge        0.858330770125596    0.367912831191073    0.059976615947887  0.0000
  Si     Si        0.554157410575325    0.997420050857116    0.640217334228643  0.0000
  Si     Si        0.958016485838736    0.061573023463389    0.113170722465321  0.0000
  Si     Si        0.669245333182882    0.287100450569435    0.752566090852055  0.0000
  Si     Si        0.150116533120866    0.689236692574673    0.991798528500150  0.0000
  O1     O1        0.126854979796270    0.144247904546904    0.397134220841558  0.0000
  O1     O1        0.380576718554726    0.913641016556149    0.411975190372619  0.0000
  O1     O1        0.913718429158522    0.238444378500189    0.658310899438064  0.0000
  O3     O3        0.578757068993714    0.803530510584996    0.661095263076858  0.0000
  O1     O1        0.868620523603559    0.898008368493948    0.630727532713636  0.0000
  O2     O2        0.621375501826947    0.131693570642587    0.683805880262355  0.0000
  O1     O1        0.084085798599583    0.795629259635782    0.388386039047245  0.0000
  O1     O1        0.419884375134698    0.263413369717277    0.405568702927865  0.0000
  O1     O1        0.974630467895151    0.039809036504429    0.461113957036830  0.0000
  O3     O3        0.533772188520022    0.024378646163246    0.487556205086911  0.0000
  O3     O3        0.028852189261325    0.022754510428079    0.205862700649938  0.0000
  O1     O1        0.479835633533734    0.036555153710653    0.231441602039016  0.0000
  O1     O1        0.023554779805885    0.983143180923344    0.710988441776394  0.0000
  O3     O3        0.476807231091543    0.037107159114710    0.714640622005259  0.0000
  O1     O1        0.624845593240750    0.157621438010568    0.156235711971404  0.0000
  O3     O3        0.889287548139396    0.924117236480736    0.134733212302348  0.0000
  O1     O1        0.424491621099159    0.267169193459394    0.903064449506580  0.0000
  O3     O3        0.088696028449990    0.794089749260982    0.909502974610398  0.0000
  O1     O1        0.367180464533746    0.932745386512264    0.897119500004104  0.0000
  O1     O1        0.129973231367109    0.150727507364021    0.878239712586775  0.0000
  O1     O1        0.596664026000362    0.808620184273765    0.160063877586447  0.0000
  O3     O3        0.927921226496330    0.251703381030960    0.138615828966848  0.0000
  O1     O1        0.521769498873763    0.998131733665220    0.973629963873526  0.0000
  O3     O3        0.982719296442731    0.052917407630034    0.962066923577444  0.0000
  O1     O1        0.163048628127362    0.486739304929476    0.360666314358062  0.0000
  O1     O1        0.342061517703549    0.571316134712818    0.366464467365894  0.0000
  O1     O1        0.840293281951123    0.550088156761090    0.667294937433971  0.0000
  O3     O3        0.648792059968815    0.471605487516613    0.692505211063933  0.0000
  O1     O1        0.272173558171492    0.251356742410481    0.301438881021560  0.0000
  O1     O1        0.233742951704932    0.810659324043544    0.311687301688718  0.0000
  O3     O3        0.757843958157092    0.250618454681160    0.735066678651965  0.0000
  O1     O1        0.730408601854972    0.779805749226555    0.738792618066005  0.0000
  O1     O1        0.143965969215874    0.265195366147906    0.138279742304725  0.0000
  O1     O1        0.360715041321798    0.793830322140610    0.151093815104337  0.0000
  O1     O1        0.875522921765913    0.388151715627309    0.895993582671381  0.0000
  O1     O1        0.615654713899955    0.675749243729498    0.908853336075695  0.0000
  O1     O1        0.865671592278264    0.775002786416482    0.885626305377046  0.0000
  O3     O3        0.648607298756423    0.290807087094012    0.904638234083000  0.0000
  O3     O3        0.122973313033017    0.663955750992180    0.139563618025249  0.0000
  O1     O1        0.388810242622542    0.388122645196715    0.150653309489903  0.0000
  O1     O1        0.670150243340073    0.497965021070844    0.127615099450163  0.0000
  O1     O1        0.853687349451504    0.572890743776815    0.116768710985871  0.0000
  O1     O1        0.349450275991102    0.578700614578515    0.930911916243292  0.0000
  O3     O3        0.160787787209480    0.502618611974942    0.930004387464935  0.0000
  O1     O1        0.774196753512802    0.252360568744249    0.076709831414590  0.0000
  O1     O1        0.742210900135186    0.805245006156002    0.050035108719145  0.0000
  O1     O1        0.272061916028846    0.265496279880252    0.981108436192776  0.0000
  O3     O3        0.229857139453170    0.796838487867894    0.993209861516719  0.0000
