data_c01129.vasp
_audit_creation_method             Generated by GULP
_audit_author_name                 Salvador R. G. Balestra
_symmetry_space_group_name_H-M     'P 1             '
_symmetry_Int_Tables_number        1

loop_
_symmetry_equiv_pos_site_id
_symmetry_equiv_pos_as_xyz
_cell_length_a                       17.5584
_cell_length_b                        7.8175
_cell_length_c                       10.1597
_cell_angle_alpha                   90.0274
_cell_angle_beta                    90.4796
_cell_angle_gamma                   91.6775

loop_
_atom_site_label
_atom_site_type_symbol
_atom_site_fract_x
_atom_site_fract_y
_atom_site_fract_z
_atom_site_charge
  Ge     Ge        0.052090000000021    0.000000000000000    0.372269999999958  0.0000
  Ge     Ge        0.438592920562674    0.051344671181067    0.394474697311263  0.0000
  Ge     Ge        0.940698097387637    0.047112687500128    0.617799721599317  0.0000
  Ge     Ge        0.549393939200358    0.992884263592500    0.147280587794007  0.0000
  Ge     Ge        0.446208611259611    0.057322011584165    0.887652449868933  0.0000
  Ge     Ge        0.039320971483315    0.991067580144537    0.882747170074184  0.0000
  Ge     Ge        0.318955868620172    0.765074509024323    0.274278597533237  0.0000
  Ge     Ge        0.843311729934908    0.356929150726975    0.698153021130734  0.0000
  Ge     Ge        0.638054965017136    0.682570883018624    0.708222916242690  0.0000
  Ge     Ge        0.819435996782475    0.761088414672072    0.701629562187595  0.0000
  Ge     Ge        0.661622321205410    0.278901997926937    0.710385011487635  0.0000
  Ge     Ge        0.345447504398536    0.366599078213907    0.277740733407289  0.0000
  Ge     Ge        0.669527618090372    0.278849550051468    0.029290215833276  0.0000
  Ge     Ge        0.824400154265194    0.763162872239201    0.021019580439912  0.0000
  Ge     Ge        0.345924151294032    0.365334426802438    0.955316175386026  0.0000
  Ge     Ge        0.140801462464491    0.684044443176556    0.949909843098329  0.0000
  Ge     Ge        0.320540390567692    0.770091722720105    0.955936800472353  0.0000
  Ge     Ge        0.166752036059819    0.277171866088559    0.957077675709131  0.0000
  Ge     Ge        0.642013199647547    0.680875794056569    0.027429677951869  0.0000
  Ge     Ge        0.851783676377736    0.358565537631676    0.016877319173775  0.0000
  Si     Si        0.544018875457168    0.992874583731677    0.638597904042999  0.0000
  Si     Si        0.940893694529072    0.049679739648754    0.134920391401218  0.0000
  Si     Si        0.166045045661714    0.294097100494946    0.268189994815632  0.0000
  Si     Si        0.140087740286067    0.685566559051089    0.259720826531175  0.0000
  O3     O3        0.121784928558658    0.159072492140998    0.360009621063229  0.0000
  O1     O1        0.359153426577064    0.922871126157095    0.369678142756254  0.0000
  O1     O1        0.903850860648033    0.246484084806644    0.599574078071310  0.0000
  O3     O3        0.574323080681297    0.803219560235200    0.617690919308016  0.0000
  O1     O1        0.867981624117452    0.896695112075465    0.598404858588167  0.0000
  O3     O3        0.611038116701215    0.133584939395936    0.612269575779845  0.0000
  O3     O3        0.083367170764242    0.795054589816434    0.346906745214399  0.0000
  O1     O1        0.410758829317899    0.256554476728963    0.367116801840856  0.0000
  O1     O1        0.020977039388135    0.007565809072216    0.532331497800427  0.0000
  O3     O3        0.468231218116287    0.029947843173064    0.557367337899032  0.0000
  O3     O3        0.969693931562396    0.041778189713755    0.285289133861325  0.0000
  O1     O1        0.516342001136731    0.996369644227629    0.305775480544587  0.0000
  O1     O1        0.965323585961866    0.033733913799677    0.783690703267731  0.0000
  O3     O3        0.523371870806057    0.012562036623923    0.793341736268191  0.0000
  O1     O1        0.627101637562291    0.128976511252687    0.128450241612549  0.0000
  O3     O3        0.868579443093953    0.921286970848934    0.114701778563500  0.0000
  O1     O1        0.411507231782378    0.258709064601639    0.865362702432408  0.0000
  O1     O1        0.074898276088394    0.790038623569738    0.859447653057523  0.0000
  O1     O1        0.372778677400312    0.909958797730812    0.862766763205287  0.0000
  O1     O1        0.113893468734003    0.137585352981692    0.864315475533614  0.0000
  O1     O1        0.575904416154419    0.787322639046413    0.115151609070708  0.0000
  O3     O3        0.918474805510763    0.243309926959589    0.102095038086979  0.0000
  O1     O1        0.475030116472356    0.052627508135962    0.049937413014340  0.0000
  O3     O3        0.010952036397582    0.994378372117881    0.046118761209410  0.0000
  O2     O2        0.150695482950765    0.490992288751635    0.312873997823141  0.0000
  O1     O1        0.340368971653724    0.569646648779965    0.339357223979087  0.0000
  O1     O1        0.829002285390182    0.557198315592498    0.639567052984430  0.0000
  O1     O1        0.646607627379661    0.480934778460013    0.646765768845508  0.0000
  O3     O3        0.255851697760598    0.265239550787229    0.279111274275030  0.0000
  O3     O3        0.221409207866837    0.785019810732056    0.264038917681346  0.0000
  O1     O1        0.757334984522454    0.243435267812508    0.706152026059756  0.0000
  O1     O1        0.723606129680092    0.796167934885313    0.707553754021243  0.0000
  O3     O3        0.136963722631036    0.264560133964417    0.119784556108197  0.0000
  O1     O1        0.352873740928253    0.783706485147959    0.116682837082717  0.0000
  O1     O1        0.879358849289445    0.377015069336790    0.855864299544780  0.0000
  O1     O1        0.609260454797466    0.659602161813509    0.868118055244648  0.0000
  O1     O1        0.854613845743182    0.775167787647086    0.860695355846647  0.0000
  O1     O1        0.632613646281583    0.267810181470804    0.871666901877533  0.0000
  O3     O3        0.109298023059510    0.673997680910139    0.111992267731398  0.0000
  O1     O1        0.374361307706257    0.381690475497323    0.117683984006135  0.0000
  O1     O1        0.654678123787650    0.480745871156779    0.090735813082557  0.0000
  O1     O1        0.843514894020216    0.561265207740294    0.079499218850156  0.0000
  O1     O1        0.332557188139446    0.565378410631611    0.896151997633180  0.0000
  O1     O1        0.153187258438686    0.481259716668729    0.896661963165828  0.0000
  O1     O1        0.765611487446388    0.249523419454103    0.021929483258366  0.0000
  O1     O1        0.728150372864068    0.792253796562744    0.026074128822683  0.0000
  O1     O1        0.262167418923857    0.242883766375829    0.951737141816318  0.0000
  O1     O1        0.224769781407861    0.804121579521659    0.948624084756225  0.0000
