data_c01160.vasp
_audit_creation_method             Generated by GULP
_audit_author_name                 Salvador R. G. Balestra
_symmetry_space_group_name_H-M     'P 1             '
_symmetry_Int_Tables_number        1

loop_
_symmetry_equiv_pos_site_id
_symmetry_equiv_pos_as_xyz
_cell_length_a                       17.5182
_cell_length_b                        7.8197
_cell_length_c                       10.2804
_cell_angle_alpha                   89.6489
_cell_angle_beta                    89.9752
_cell_angle_gamma                   91.7742

loop_
_atom_site_label
_atom_site_type_symbol
_atom_site_fract_x
_atom_site_fract_y
_atom_site_fract_z
_atom_site_charge
  Ge     Ge        0.052090000000021    0.000000000000000    0.372269999999958  0.0000
  Ge     Ge        0.456491739697602    0.058385297495561    0.420438079575862  0.0000
  Ge     Ge        0.951645811526394    0.059069395719745    0.627103646335980  0.0000
  Ge     Ge        0.949983858988592    0.056323779713015    0.112516507195602  0.0000
  Ge     Ge        0.463052360547519    0.069206847173650    0.924927859395259  0.0000
  Ge     Ge        0.062105969296366    0.003357709416351    0.868518701908156  0.0000
  Ge     Ge        0.180170929240985    0.283603860301379    0.305204804159931  0.0000
  Ge     Ge        0.332701481164164    0.773292361022543    0.310565809029996  0.0000
  Ge     Ge        0.856178572117819    0.364297793034528    0.747193680275930  0.0000
  Ge     Ge        0.648090816617427    0.690449519175909    0.748194904025172  0.0000
  Ge     Ge        0.829648373342581    0.769936762033494    0.749074926904655  0.0000
  Ge     Ge        0.673762911274453    0.286596278904075    0.747742357694419  0.0000
  Ge     Ge        0.151358839208147    0.686056234081807    0.307628221684968  0.0000
  Ge     Ge        0.361702513768694    0.371057895461878    0.308624200151349  0.0000
  Ge     Ge        0.674940024703668    0.293407045171475    0.063290601858641  0.0000
  Ge     Ge        0.364146919609362    0.380982194429673    0.991655613976083  0.0000
  Ge     Ge        0.154319969834052    0.692078545787922    0.990965450021580  0.0000
  Ge     Ge        0.335394663933527    0.782396231629931    0.995085450201939  0.0000
  Ge     Ge        0.183677850710693    0.288581307080354    0.988835996432960  0.0000
  Ge     Ge        0.652524057358060    0.692747916004421    0.063797521606476  0.0000
  Si     Si        0.558019286097275    0.001879976589049    0.669702028095044  0.0000
  Si     Si        0.563547603946285    0.003401415441542    0.178072383684913  0.0000
  Si     Si        0.833240991587153    0.759264240777394    0.055661281970770  0.0000
  Si     Si        0.854939803312493    0.369065264886601    0.053800951538364  0.0000
  O1     O1        0.128327127883433    0.140552663847169    0.397655711816884  0.0000
  O1     O1        0.379441190603476    0.921616277176440    0.405151434316596  0.0000
  O1     O1        0.924136514541893    0.263202111515967    0.660039751779551  0.0000
  O3     O3        0.586143726275187    0.809615594573957    0.654710155299978  0.0000
  O1     O1        0.876103416236263    0.920380378072542    0.656857381494318  0.0000
  O3     O3        0.626800457405895    0.140627600430889    0.648040630089145  0.0000
  O1     O1        0.084489556448539    0.796364621423648    0.392234347128820  0.0000
  O1     O1        0.429131299808783    0.263458461087104    0.394977147308715  0.0000
  O1     O1        0.974889803453361    0.043375489165227    0.464956535478930  0.0000
  O3     O3        0.486556546552115    0.039823875334380    0.580670289740278  0.0000
  O1     O1        0.025486256567834    0.025572950851561    0.211112953438207  0.0000
  O3     O3        0.533491186670788    0.006579648284396    0.324903350184391  0.0000
  O1     O1        0.033211716450163    0.008207038906585    0.708746130309261  0.0000
  O3     O3        0.535548931461088    0.023687353522200    0.821819684403521  0.0000
  O3     O3        0.636256430621810    0.132203132911049    0.159034380711933  0.0000
  O3     O3        0.881014628865947    0.893776058732997    0.141108756034417  0.0000
  O1     O1        0.431167919336529    0.273182766375264    0.905765106148952  0.0000
  O1     O1        0.087526028538337    0.797918386351906    0.903537995970932  0.0000
  O1     O1        0.386649790693341    0.928973779227643    0.905117334487384  0.0000
  O1     O1        0.138636329012276    0.141636390649256    0.891105438132875  0.0000
  O3     O3        0.589334498307942    0.811656612013040    0.149763438471127  0.0000
  O3     O3        0.909966417597960    0.255346747834387    0.140227963500072  0.0000
  O3     O3        0.495104182289360    0.057885539374582    0.084634475553575  0.0000
  O1     O1        0.983245381438473    0.059541556374156    0.955755791734250  0.0000
  O1     O1        0.164604856590045    0.485375987584189    0.366612618842831  0.0000
  O1     O1        0.347334574198744    0.570288004758835    0.370555526809995  0.0000
  O1     O1        0.845235310337795    0.568189805948535    0.690546951733236  0.0000
  O1     O1        0.657203413814758    0.489782900692893    0.688059142660994  0.0000
  O1     O1        0.276695656827361    0.252792776582954    0.310205601140856  0.0000
  O1     O1        0.236298361194059    0.804422165560925    0.309857011342345  0.0000
  O1     O1        0.769808587818500    0.253441216013777    0.740759131931183  0.0000
  O1     O1        0.733954506888584    0.803008619378764    0.748083785186279  0.0000
  O1     O1        0.150189743285752    0.271088688356075    0.145572923029967  0.0000
  O1     O1        0.366171912404794    0.792443417964439    0.153947567539398  0.0000
  O3     O3        0.886477841644501    0.376751097783754    0.907310978100946  0.0000
  O1     O1        0.619264784681146    0.673778964944929    0.907739561051523  0.0000
  O3     O3        0.862654125057423    0.782819838258748    0.908066368785383  0.0000
  O1     O1        0.641747478296135    0.276878461447995    0.906524806832209  0.0000
  O1     O1        0.122998800926930    0.668339136874984    0.148045435160796  0.0000
  O1     O1        0.392167430459881    0.398642044100378    0.151520925809156  0.0000
  O1     O1        0.654651100792097    0.489560316158102    0.126843744864940  0.0000
  O2     O2        0.846991582551406    0.563595127937563    0.105238364333407  0.0000
  O1     O1        0.350946544396043    0.581405132458826    0.932242432086209  0.0000
  O1     O1        0.168894454178848    0.492478492859686    0.930162167023032  0.0000
  O3     O3        0.772372981522503    0.274027260897185    0.052751008152325  0.0000
  O3     O3        0.743151151235312    0.788954665725213    0.062626034372335  0.0000
  O1     O1        0.280218233271470    0.259576505638276    0.990152229085227  0.0000
  O1     O1        0.238974597710294    0.811993472952700    0.990426409584926  0.0000
