data_c01113.vasp
_audit_creation_method             Generated by GULP
_audit_author_name                 Salvador R. G. Balestra
_symmetry_space_group_name_H-M     'P 1             '
_symmetry_Int_Tables_number        1

loop_
_symmetry_equiv_pos_site_id
_symmetry_equiv_pos_as_xyz
_cell_length_a                       17.7416
_cell_length_b                        7.8512
_cell_length_c                       10.3658
_cell_angle_alpha                   89.0192
_cell_angle_beta                    90.5861
_cell_angle_gamma                   90.3190

loop_
_atom_site_label
_atom_site_type_symbol
_atom_site_fract_x
_atom_site_fract_y
_atom_site_fract_z
_atom_site_charge
  Ge     Ge        0.052090000000021    0.000000000000000    0.372269999999958  0.0000
  Ge     Ge        0.452535535926543    0.036463708298405    0.388661014627273  0.0000
  Ge     Ge        0.947614452003544    0.018869436644376    0.625559949510310  0.0000
  Ge     Ge        0.556594506566747    0.022406104262296    0.132030185315864  0.0000
  Ge     Ge        0.450413075266207    0.047373764510374    0.876909308832953  0.0000
  Ge     Ge        0.062683327743234    0.011856479906164    0.870676391920221  0.0000
  Ge     Ge        0.173831550126892    0.282794707657331    0.296352462625375  0.0000
  Ge     Ge        0.331995266733916    0.758250545959399    0.305647858261370  0.0000
  Ge     Ge        0.835104682799688    0.314324742259721    0.733315067341109  0.0000
  Ge     Ge        0.669396109049162    0.754893377551280    0.749401191087288  0.0000
  Ge     Ge        0.653457522520011    0.350302462472350    0.738437254039971  0.0000
  Ge     Ge        0.153338396479353    0.691164800031485    0.297474776724285  0.0000
  Ge     Ge        0.353453952907171    0.349770439273285    0.302454198258107  0.0000
  Ge     Ge        0.660284426030762    0.336733286699666    0.054289447635159  0.0000
  Ge     Ge        0.857266257074963    0.703342560445172    0.047827114758293  0.0000
  Ge     Ge        0.358127928827122    0.362013327209341    0.988375197524295  0.0000
  Ge     Ge        0.331967609954197    0.766552766110998    0.992724244070829  0.0000
  Ge     Ge        0.176539617213444    0.301382696933314    0.984597247323985  0.0000
  Ge     Ge        0.677250250311740    0.742217826105207    0.062816126968243  0.0000
  Ge     Ge        0.841502269389585    0.295108156745654    0.045904926938896  0.0000
  Si     Si        0.555970051415913    0.044703090339419    0.635158143756528  0.0000
  Si     Si        0.958023184207747    0.013473786869687    0.113586838810511  0.0000
  Si     Si        0.846743908648570    0.714116198854881    0.741454406156570  0.0000
  Si     Si        0.154974007224840    0.700370038623158    0.991289660423647  0.0000
  O1     O1        0.123070991273635    0.147760665772585    0.393419608760565  0.0000
  O1     O1        0.382265934692951    0.886758911100892    0.407254125527767  0.0000
  O1     O1        0.889258788453591    0.190458912063643    0.637981765997110  0.0000
  O3     O3        0.622678727224027    0.913505001024987    0.666723235977010  0.0000
  O3     O3        0.900710094220643    0.829463183367110    0.654271131925779  0.0000
  O3     O3        0.587531561539890    0.234913211105439    0.652411523999205  0.0000
  O1     O1        0.088935174438237    0.798919199337446    0.385822767931157  0.0000
  O1     O1        0.415080804836971    0.235892867449164    0.398509813754337  0.0000
  O1     O1        0.976198984036536    0.022888726514554    0.467300100547880  0.0000
  O3     O3        0.529736626430869    0.014706847037312    0.488834123409073  0.0000
  O3     O3        0.026238296357274    0.035119223283248    0.211274848165745  0.0000
  O1     O1        0.483481332855313    0.002083769986351    0.234186533878131  0.0000
  O1     O1        0.029092738581671    0.024802769358832    0.715362590708554  0.0000
  O3     O3        0.481909816374075    0.017316759761943    0.721384326607548  0.0000
  O1     O1        0.598811844635998    0.219146676433700    0.144867995976923  0.0000
  O3     O3        0.922970003112892    0.824010763601121    0.128948287749309  0.0000
  O1     O1        0.423171888513513    0.253920911645973    0.900983251406433  0.0000
  O3     O3        0.098260892187307    0.810777573871932    0.903459260776017  0.0000
  O1     O1        0.372222644640590    0.920151641295129    0.898199159694135  0.0000
  O1     O1        0.129964821926286    0.168054381181107    0.882558662173255  0.0000
  O1     O1        0.625812746901874    0.871728773016881    0.157320479206361  0.0000
  O3     O3        0.892868182476617    0.151580429692680    0.137479820119027  0.0000
  O1     O1        0.522833211743233    0.991057577967182    0.977722939578291  0.0000
  O3     O3        0.986368171095288    0.047568141334819    0.968165089308314  0.0000
  O1     O1        0.162936627368593    0.487187974362507    0.352385272989953  0.0000
  O1     O1        0.342103933635840    0.549951323302058    0.358980766797774  0.0000
  O3     O3        0.839303658722102    0.526890250160478    0.683357930496596  0.0000
  O1     O1        0.653358532135832    0.558272252256850    0.683967159246329  0.0000
  O1     O1        0.268717843532154    0.240889080604561    0.299287888497533  0.0000
  O1     O1        0.237397678156275    0.801528873387822    0.306796329135174  0.0000
  O1     O1        0.741243685984872    0.261526245571819    0.725326376165341  0.0000
  O3     O3        0.764919083883866    0.801138283192204    0.747094470054012  0.0000
  O1     O1        0.143919206438861    0.271827359991520    0.138045521398471  0.0000
  O1     O1        0.363826686951048    0.777406111474360    0.149400366378798  0.0000
  O1     O1        0.868795528277519    0.292138166318612    0.887458442741927  0.0000
  O1     O1        0.642490009546526    0.749211510315317    0.906798741200044  0.0000
  O3     O3        0.880646168572605    0.699766472495162    0.885745509060532  0.0000
  O1     O1        0.627226750862252    0.345311160342887    0.897371719183795  0.0000
  O3     O3        0.124602559620312    0.684726893683245    0.136587404553508  0.0000
  O1     O1        0.387254799269920    0.360030300475248    0.147380366719793  0.0000
  O1     O1        0.669721369212344    0.534759620079575    0.117535314238309  0.0000
  O1     O1        0.854927688892570    0.497853686414791    0.104465520501191  0.0000
  O1     O1        0.352448939071720    0.568710171327935    0.933888419056176  0.0000
  O3     O3        0.163980139046668    0.512810769559884    0.934864921808225  0.0000
  O1     O1        0.747792572529159    0.242908601508733    0.051005908291070  0.0000
  O1     O1        0.770840695345345    0.796991213733723    0.063285995400828  0.0000
  O1     O1        0.271464741109451    0.263501852377728    0.980536413813846  0.0000
  O3     O3        0.235506418423637    0.796044745312810    0.995123610335510  0.0000
