data_c01146.vasp
_audit_creation_method             Generated by GULP
_audit_author_name                 Salvador R. G. Balestra
_symmetry_space_group_name_H-M     'P 1             '
_symmetry_Int_Tables_number        1

loop_
_symmetry_equiv_pos_site_id
_symmetry_equiv_pos_as_xyz
_cell_length_a                       17.4173
_cell_length_b                        7.8268
_cell_length_c                       10.3392
_cell_angle_alpha                   89.6518
_cell_angle_beta                    91.1956
_cell_angle_gamma                   91.9450

loop_
_atom_site_label
_atom_site_type_symbol
_atom_site_fract_x
_atom_site_fract_y
_atom_site_fract_z
_atom_site_charge
  Ge     Ge        0.052090000000021    0.000000000000000    0.372269999999958  0.0000
  Ge     Ge        0.450310456641048    0.058792085156299    0.417514495649652  0.0000
  Ge     Ge        0.945886458992289    0.061779117742466    0.621966748182241  0.0000
  Ge     Ge        0.559538595192007    0.002758846924784    0.171691482229202  0.0000
  Ge     Ge        0.175518069362625    0.284238044746331    0.293212063532490  0.0000
  Ge     Ge        0.328015159295203    0.773212512712435    0.301240931592204  0.0000
  Ge     Ge        0.851308642048895    0.372152679074177    0.732275584953749  0.0000
  Ge     Ge        0.641566148549514    0.691060664644392    0.744188995822125  0.0000
  Ge     Ge        0.824675767134470    0.772173002160820    0.731224113527309  0.0000
  Ge     Ge        0.667898689539722    0.289170908366541    0.745945403094859  0.0000
  Ge     Ge        0.145438469182679    0.685757870233025    0.293185783322344  0.0000
  Ge     Ge        0.357822924253670    0.372377419823916    0.299148629701723  0.0000
  Ge     Ge        0.680173731132119    0.292017446287882    0.060292702424030  0.0000
  Ge     Ge        0.837903712595407    0.777602784790429    0.044335276667429  0.0000
  Ge     Ge        0.357462726140603    0.376833549421741    0.984225917610806  0.0000
  Ge     Ge        0.148883918077429    0.699239607796267    0.981088998168357  0.0000
  Ge     Ge        0.334328627012322    0.778032849258932    0.989668443692608  0.0000
  Ge     Ge        0.173246996794198    0.295176120400108    0.978191321751336  0.0000
  Ge     Ge        0.654540810003981    0.694425989513635    0.057913839790901  0.0000
  Ge     Ge        0.862668136202879    0.376021200022197    0.046894262948547  0.0000
  Si     Si        0.547014556002799    0.004156774054167    0.674481013644699  0.0000
  Si     Si        0.960434200801139    0.067070583267961    0.110648106236514  0.0000
  Si     Si        0.453514307237853    0.069587603247044    0.921101493945763  0.0000
  Si     Si        0.057233796924475    0.006885877546972    0.865113042708106  0.0000
  O1     O1        0.128948065982817    0.141500699069181    0.392177805419694  0.0000
  O1     O1        0.371486074647412    0.924944337352777    0.397645059687489  0.0000
  O1     O1        0.917054893675142    0.265371422371048    0.645319106228272  0.0000
  O3     O3        0.574564016066835    0.811689498775980    0.660895597373490  0.0000
  O1     O1        0.868785137061014    0.923277408627603    0.636422234721191  0.0000
  O3     O3        0.618184568298455    0.137286335366356    0.653764908645861  0.0000
  O1     O1        0.082148504772513    0.794502248684281    0.385093168764448  0.0000
  O1     O1        0.426154879085911    0.265337733436839    0.385455314903022  0.0000
  O1     O1        0.977011072960605    0.043245884095128    0.465970610704451  0.0000
  O3     O3        0.477414616695410    0.042538505769684    0.579203374708989  0.0000
  O3     O3        0.028285636248699    0.029291427797237    0.208755192978201  0.0000
  O1     O1        0.525800632535615    0.002041257205648    0.325779113844177  0.0000
  O3     O3        0.023761165192603    0.012058205156100    0.720086492276652  0.0000
  O2     O2        0.521352442785094    0.031868204181898    0.823503481039912  0.0000
  O1     O1        0.636182275985128    0.144701428647977    0.158514997000618  0.0000
  O3     O3        0.889855949102418    0.931322883939081    0.130368883863515  0.0000
  O3     O3        0.422343486230012    0.258798717755601    0.900010290060938  0.0000
  O3     O3        0.084782835800627    0.816056213181407    0.890368084792483  0.0000
  O3     O3        0.383596512773533    0.931815271133507    0.901392198239828  0.0000
  O3     O3        0.127745113683583    0.142849780135260    0.881005199074350  0.0000
  O1     O1        0.589151717041926    0.799808204686109    0.144999729641607  0.0000
  O3     O3        0.930858484350437    0.257868416352429    0.128554884221968  0.0000
  O3     O3        0.485357312781608    0.058371211085406    0.067962346152005  0.0000
  O2     O2        0.989270199332700    0.053547212579940    0.962390368961656  0.0000
  O1     O1        0.159380382525656    0.486188566228298    0.352462266831416  0.0000
  O1     O1        0.343492987614383    0.570672131878740    0.361442698951096  0.0000
  O1     O1        0.837102841459477    0.571453536705279    0.668807440325956  0.0000
  O1     O1        0.648860628011264    0.489756491031111    0.683687844710557  0.0000
  O1     O1        0.272513475611164    0.253830353666605    0.296715378082385  0.0000
  O1     O1        0.231285326996495    0.802958926962634    0.291596605020343  0.0000
  O1     O1        0.764768218135043    0.258808025149927    0.735861160962236  0.0000
  O1     O1        0.728092035596362    0.803111572290574    0.738009378851523  0.0000
  O1     O1        0.143143882760369    0.276823236719143    0.134443089633339  0.0000
  O1     O1        0.365373864177648    0.788493739164707    0.148360834461831  0.0000
  O1     O1        0.886008821626235    0.399356352974450    0.887355535409634  0.0000
  O1     O1        0.617958251329733    0.669651173930298    0.903395358725105  0.0000
  O1     O1        0.863362734103624    0.785708355398003    0.885070139889191  0.0000
  O1     O1        0.642669871701499    0.277882257559426    0.905450642784027  0.0000
  O1     O1        0.114369148364633    0.673795023661853    0.134217952502386  0.0000
  O1     O1        0.387191409165247    0.398674990394538    0.142669230310813  0.0000
  O1     O1        0.668825967867669    0.494665256914676    0.120037999192246  0.0000
  O1     O1        0.856080072516571    0.577395465006244    0.108144050011705  0.0000
  O1     O1        0.350165345337065    0.579832364280640    0.924307420843502  0.0000
  O1     O1        0.157213989822295    0.497892541389108    0.919149986502702  0.0000
  O1     O1        0.776986777807853    0.261600803437976    0.054214838833918  0.0000
  O1     O1        0.741069726080927    0.808364046138927    0.054103401214519  0.0000
  O1     O1        0.270442488654530    0.267109564357450    0.978128857746576  0.0000
  O1     O1        0.236981281641499    0.805579131348756    0.985070514716722  0.0000
