data_c01140.vasp
_audit_creation_method             Generated by GULP
_audit_author_name                 Salvador R. G. Balestra
_symmetry_space_group_name_H-M     'P 1             '
_symmetry_Int_Tables_number        1

loop_
_symmetry_equiv_pos_site_id
_symmetry_equiv_pos_as_xyz
_cell_length_a                       17.4715
_cell_length_b                        7.8133
_cell_length_c                       10.3463
_cell_angle_alpha                   90.6348
_cell_angle_beta                    90.6766
_cell_angle_gamma                   88.4171

loop_
_atom_site_label
_atom_site_type_symbol
_atom_site_fract_x
_atom_site_fract_y
_atom_site_fract_z
_atom_site_charge
  Ge     Ge        0.052090000000021    0.000000000000000    0.372269999999958  0.0000
  Ge     Ge        0.452242979995131    0.943352543262348    0.426541660859674  0.0000
  Ge     Ge        0.948982795183461    0.945652041183634    0.625574538655573  0.0000
  Ge     Ge        0.560670387868006    0.998094888972696    0.178565960013029  0.0000
  Ge     Ge        0.062966814119576    0.988535672195468    0.871287223222916  0.0000
  Ge     Ge        0.149627605705098    0.311925585406625    0.299905085516814  0.0000
  Ge     Ge        0.358910462839186    0.629162760873252    0.305911844307341  0.0000
  Ge     Ge        0.827045575876645    0.232349976541785    0.736559087351732  0.0000
  Ge     Ge        0.670829413886157    0.713404245079202    0.752546144591862  0.0000
  Ge     Ge        0.853859288756145    0.633632210454728    0.740137455132898  0.0000
  Ge     Ge        0.644331538655059    0.310713246937322    0.749640451476745  0.0000
  Ge     Ge        0.177326006534058    0.717361129741978    0.296113759207639  0.0000
  Ge     Ge        0.330089193008132    0.226271653193950    0.313524275928766  0.0000
  Ge     Ge        0.655425704199502    0.306669567077629    0.062868444982448  0.0000
  Ge     Ge        0.862374115675984    0.624533869669698    0.054443102832201  0.0000
  Ge     Ge        0.337673454187821    0.214736295791108    0.001269730220888  0.0000
  Ge     Ge        0.179261062297254    0.692602366833125    0.983696975814053  0.0000
  Ge     Ge        0.362170012574735    0.614855423080037    0.991174982962576  0.0000
  Ge     Ge        0.681135573368522    0.709970801042556    0.066409482595796  0.0000
  Ge     Ge        0.837639377530823    0.222275488077196    0.049515237718347  0.0000
  Si     Si        0.549747071466970    0.995753334407086    0.681870649707567  0.0000
  Si     Si        0.959047506708643    0.934693149384109    0.114960747854159  0.0000
  Si     Si        0.456135338951172    0.925230730925494    0.928909361173812  0.0000
  Si     Si        0.157982430242408    0.294217087797382    0.993746369434874  0.0000
  O1     O1        0.082146816240265    0.206891133253271    0.385221653449024  0.0000
  O1     O1        0.426569443501378    0.737719786956031    0.392073824609688  0.0000
  O1     O1        0.871721431125081    0.082839093407326    0.640495788362946  0.0000
  O3     O3        0.621132159216635    0.864275597550866    0.661398778809512  0.0000
  O1     O1        0.921232751888050    0.741884204621734    0.657413987318605  0.0000
  O3     O3        0.577385296309886    0.188666335437259    0.667396488856144  0.0000
  O1     O1        0.128845254444013    0.859989185813883    0.393076640950041  0.0000
  O1     O1        0.374783029722365    0.080143233986037    0.411583238160304  0.0000
  O1     O1        0.977188887943864    0.955978720980450    0.466489783743582  0.0000
  O3     O3        0.480711043999623    0.954430438552167    0.587339393269614  0.0000
  O3     O3        0.028477450443424    0.973296920797152    0.208984803558208  0.0000
  O1     O1        0.527122007972257    0.000777411602565    0.333070769886300  0.0000
  O1     O1        0.027557912150836    0.001818291624483    0.716304800754083  0.0000
  O2     O2        0.522979664209486    0.970013623811573    0.830814674837811  0.0000
  O1     O1        0.589540749569213    0.201655468652109    0.149932263868871  0.0000
  O3     O3        0.929452117502842    0.743749385235139    0.137335935447709  0.0000
  O3     O3        0.383917401250402    0.056621477010651    0.912638298793356  0.0000
  O1     O1        0.131175987347364    0.826967670486912    0.879662117029906  0.0000
  O3     O3        0.427771932781734    0.733124762736165    0.907414656282993  0.0000
  O3     O3        0.099570419011862    0.186665077309830    0.907902323168245  0.0000
  O1     O1        0.636918108375768    0.856528581018906    0.165660174248577  0.0000
  O3     O3        0.889166539366068    0.071446867856038    0.136799022134795  0.0000
  O3     O3        0.487140214356248    0.939863100983470    0.075493445368849  0.0000
  O3     O3        0.985397340342628    0.946039682549360    0.966278584079920  0.0000
  O1     O1        0.160995009085663    0.514959338932968    0.354936613198111  0.0000
  O1     O1        0.343812502653566    0.432002554774610    0.369851132186942  0.0000
  O1     O1        0.839950683005764    0.433629808181746    0.675486079778110  0.0000
  O1     O1        0.652177942607716    0.512219147040806    0.689548797959102  0.0000
  O1     O1        0.233776828208925    0.192762486526202    0.310314237845760  0.0000
  O1     O1        0.274167921817120    0.747888793430171    0.301445533413333  0.0000
  O1     O1        0.730662521631098    0.200084070646489    0.743194425511809  0.0000
  O1     O1        0.767438743294097    0.745806133875316    0.742289207127762  0.0000
  O3     O3        0.124978772679319    0.322083667560909    0.136823217134989  0.0000
  O1     O1        0.389522261403438    0.597286449035206    0.150406338217636  0.0000
  O1     O1        0.864666951268511    0.215031055891685    0.890501176989707  0.0000
  O1     O1        0.644469903067761    0.725062773792333    0.911821798189324  0.0000
  O1     O1        0.886547131460634    0.601121945770877    0.894935714842094  0.0000
  O1     O1        0.619986093353533    0.332979076242976    0.908733704466092  0.0000
  O1     O1        0.146581878141652    0.728727054583781    0.137235910786128  0.0000
  O1     O1        0.367004588738942    0.205061495155136    0.160031322310631  0.0000
  O1     O1        0.669902760661356    0.506746473492135    0.125576698543943  0.0000
  O1     O1        0.854581606286461    0.423339556546002    0.114710428094386  0.0000
  O1     O1        0.357232101978721    0.409350354665545    0.933768960096398  0.0000
  O3     O3        0.168969917554914    0.480478809623237    0.934052431388335  0.0000
  O1     O1        0.740954054784531    0.190772023083687    0.057989745065025  0.0000
  O1     O1        0.777559125122657    0.741023944076603    0.059938678909793  0.0000
  O3     O3        0.239322439955863    0.190700859444275    0.000210452195234  0.0000
  O1     O1        0.275826775843998    0.724537675207549    0.982439922431126  0.0000
