data_c01179.vasp
_audit_creation_method             Generated by GULP
_audit_author_name                 Salvador R. G. Balestra
_symmetry_space_group_name_H-M     'P 1             '
_symmetry_Int_Tables_number        1

loop_
_symmetry_equiv_pos_site_id
_symmetry_equiv_pos_as_xyz
_cell_length_a                       17.5986
_cell_length_b                        7.8175
_cell_length_c                       10.1282
_cell_angle_alpha                   89.8934
_cell_angle_beta                    89.9240
_cell_angle_gamma                   91.0998

loop_
_atom_site_label
_atom_site_type_symbol
_atom_site_fract_x
_atom_site_fract_y
_atom_site_fract_z
_atom_site_charge
  Ge     Ge        0.052090000000021    0.000000000000000    0.372269999999958  0.0000
  Ge     Ge        0.438053402071473    0.056423434559657    0.366906059924932  0.0000
  Ge     Ge        0.941021050960119    0.050618019013121    0.616383902422213  0.0000
  Ge     Ge        0.937202585866901    0.053233306417911    0.131819898388429  0.0000
  Ge     Ge        0.447574487418024    0.061140069572270    0.867631507741953  0.0000
  Ge     Ge        0.041146045723698    0.994603556774288    0.875836081972197  0.0000
  Ge     Ge        0.168019026444044    0.296101686008609    0.259586527598991  0.0000
  Ge     Ge        0.321266044682023    0.762522209857360    0.259426808618036  0.0000
  Ge     Ge        0.841890996904262    0.364352934348477    0.686847345506112  0.0000
  Ge     Ge        0.635764294792844    0.694674979923161    0.688368204499333  0.0000
  Ge     Ge        0.817241652541229    0.768483602545821    0.691537432335498  0.0000
  Ge     Ge        0.660606947838754    0.290835379811871    0.689879325227866  0.0000
  Ge     Ge        0.661508001456157    0.287754719357365    0.011144451804530  0.0000
  Ge     Ge        0.816430001156839    0.769201861806372    0.011011654154881  0.0000
  Ge     Ge        0.345134620897339    0.368247645885887    0.939255816779548  0.0000
  Ge     Ge        0.144794362722409    0.686381846064190    0.937252673054546  0.0000
  Ge     Ge        0.322413212067572    0.775516128163790    0.940168942168912  0.0000
  Ge     Ge        0.166931034091085    0.280549524591974    0.941383958131262  0.0000
  Ge     Ge        0.634617050682329    0.691831094791107    0.007126451624740  0.0000
  Ge     Ge        0.843136114177968    0.364618353841854    0.008705190647106  0.0000
  Si     Si        0.545078331023332    0.007898145967483    0.611714709855282  0.0000
  Si     Si        0.545864751424892    0.002568637969515    0.123676131002480  0.0000
  Si     Si        0.143833245881560    0.688995022483903    0.253995727473539  0.0000
  Si     Si        0.346040190257176    0.368213594328831    0.253906082944460  0.0000
  O1     O1        0.123982619893519    0.149504178106581    0.359805288031771  0.0000
  O1     O1        0.365657771559461    0.908277598168533    0.359380648553946  0.0000
  O1     O1        0.905908504093246    0.252189458071604    0.594516471310180  0.0000
  O3     O3        0.575415205868641    0.817230417998574    0.592103509818578  0.0000
  O1     O1        0.867444136792732    0.906245579289226    0.592109399676111  0.0000
  O3     O3        0.612381949647912    0.147009433403171    0.589289596834516  0.0000
  O3     O3        0.081112319002070    0.797428428746232    0.329959578685628  0.0000
  O3     O3        0.406660758782236    0.259846343704968    0.335158402415527  0.0000
  O1     O1        0.022353990010743    0.002473477077975    0.534803183561730  0.0000
  O3     O3        0.471168003674719    0.049643488948250    0.528205612936990  0.0000
  O1     O1        0.969674518019863    0.050904413971317    0.291901366525507  0.0000
  O3     O3        0.516322959208259    0.007314235555227    0.273270747887053  0.0000
  O1     O1        0.964287419586964    0.036440680992331    0.782839513260039  0.0000
  O3     O3        0.523049571911804    0.023723834172621    0.767204682284759  0.0000
  O3     O3        0.617502647135962    0.131050055502366    0.105235719600718  0.0000
  O1     O1        0.860826591998992    0.916314562503186    0.110198134254397  0.0000
  O1     O1        0.411466190108261    0.262640852793597    0.849606761351340  0.0000
  O1     O1        0.076828727263977    0.792534784671602    0.852516285463464  0.0000
  O1     O1        0.375590352371409    0.912422751964936    0.845435914441211  0.0000
  O1     O1        0.113943608087880    0.141983592100024    0.849065722721903  0.0000
  O3     O3        0.568777508333132    0.808566046193403    0.092887681578968  0.0000
  O1     O1        0.910089798518511    0.258314506418974    0.096415748416231  0.0000
  O3     O3        0.476857055389993    0.057974778428936    0.030913577303242  0.0000
  O1     O1        0.014019886296016    0.996940812602199    0.039370550103528  0.0000
  O3     O3        0.150979677352160    0.501129822261698    0.317428965630528  0.0000
  O3     O3        0.338039761432222    0.556417715281829    0.315159720843757  0.0000
  O1     O1        0.829398360075968    0.565730183984175    0.628012919632772  0.0000
  O1     O1        0.646293899661517    0.493605480075936    0.626602457643814  0.0000
  O3     O3        0.265257365180393    0.267151643161661    0.258076279826630  0.0000
  O3     O3        0.223963701062386    0.792057762907365    0.262046327387780  0.0000
  O1     O1        0.756041905504983    0.252686503744931    0.688267156739742  0.0000
  O1     O1        0.721598213496484    0.804433310360078    0.693992745900336  0.0000
  O1     O1        0.135026269671163    0.264795659756515    0.102555781118367  0.0000
  O1     O1        0.352745457880610    0.794611916703198    0.101456752101919  0.0000
  O1     O1        0.872523938247510    0.382008612526588    0.847484128075096  0.0000
  O1     O1        0.603096221692802    0.671514684978761    0.847332673816723  0.0000
  O1     O1        0.850277736567796    0.782787922285865    0.851715327083518  0.0000
  O1     O1        0.629463083703953    0.281238424184695    0.851002428645993  0.0000
  O3     O3        0.120653153683906    0.659758639099377    0.102773844104367  0.0000
  O3     O3        0.372340440148806    0.391685642412242    0.103328766077916  0.0000
  O1     O1        0.644249396588006    0.490087481008297    0.071382276514829  0.0000
  O1     O1        0.831626974860409    0.566134405996539    0.070633155100950  0.0000
  O1     O1        0.332845459686297    0.569683200680670    0.881299726267957  0.0000
  O1     O1        0.156260574079392    0.485044304164084    0.878849954039135  0.0000
  O1     O1        0.757331320121887    0.254278809262393    0.013188868214709  0.0000
  O1     O1        0.720267290552682    0.800252322287454    0.007793524612391  0.0000
  O1     O1        0.262718659827957    0.245172846324442    0.936784772881539  0.0000
  O1     O1        0.226748882848092    0.810941369189121    0.932348196781040  0.0000
