data_c01125.vasp
_audit_creation_method             Generated by GULP
_audit_author_name                 Salvador R. G. Balestra
_symmetry_space_group_name_H-M     'P 1             '
_symmetry_Int_Tables_number        1

loop_
_symmetry_equiv_pos_site_id
_symmetry_equiv_pos_as_xyz
_cell_length_a                       17.6207
_cell_length_b                        7.8110
_cell_length_c                       10.1210
_cell_angle_alpha                   91.3340
_cell_angle_beta                    90.4159
_cell_angle_gamma                   91.0608

loop_
_atom_site_label
_atom_site_type_symbol
_atom_site_fract_x
_atom_site_fract_y
_atom_site_fract_z
_atom_site_charge
  Ge     Ge        0.052090000000021    0.000000000000000    0.372269999999958  0.0000
  Ge     Ge        0.448852263717515    0.052021128562521    0.396462821675332  0.0000
  Ge     Ge        0.942523211151848    0.025508732916064    0.623221969271342  0.0000
  Ge     Ge        0.554199384026612    0.991893952499454    0.141120275506996  0.0000
  Ge     Ge        0.451701734282902    0.040151477912873    0.881197777285940  0.0000
  Ge     Ge        0.055835878252834    0.984076905341162    0.869786082649916  0.0000
  Ge     Ge        0.172829694026715    0.290012158786709    0.309465574673192  0.0000
  Ge     Ge        0.326169847800923    0.768392691227918    0.314647483146787  0.0000
  Ge     Ge        0.645141491996931    0.668922052619554    0.745465260394547  0.0000
  Ge     Ge        0.827830361322244    0.732349927355173    0.732182902835551  0.0000
  Ge     Ge        0.671301419024222    0.266878561445833    0.747470828526138  0.0000
  Ge     Ge        0.353488747997050    0.367298134557212    0.323042375356823  0.0000
  Ge     Ge        0.676674307892897    0.279208782664258    0.068929921054776  0.0000
  Ge     Ge        0.836775408105921    0.761969914534439    0.049766416971519  0.0000
  Ge     Ge        0.357355033148765    0.355572759523240    0.000346608306505  0.0000
  Ge     Ge        0.149212188358218    0.675959147643685    0.991890592598803  0.0000
  Ge     Ge        0.328272798984754    0.761402616923162    0.993170472338525  0.0000
  Ge     Ge        0.177241776850310    0.270613935470791    0.989061397562289  0.0000
  Ge     Ge        0.656632621476449    0.684495470826728    0.066512785479275  0.0000
  Ge     Ge        0.854832585821121    0.356798235399274    0.060511019618086  0.0000
  Si     Si        0.555386566431825    0.978835904680519    0.634577847907073  0.0000
  Si     Si        0.955030731836432    0.053487218509808    0.117129486599891  0.0000
  Si     Si        0.848673409959525    0.338357442141454    0.744296388570313  0.0000
  Si     Si        0.149919440989255    0.686008061636335    0.306572145433541  0.0000
  O1     O1        0.120438311468706    0.155320838098750    0.405201936118281  0.0000
  O1     O1        0.372222129714221    0.915674422837952    0.414799878624297  0.0000
  O3     O3        0.910118008409204    0.225822366005568    0.668795447352280  0.0000
  O3     O3        0.577144067663574    0.784437451237137    0.662865500194997  0.0000
  O1     O1        0.873634898120102    0.869429527347056    0.629232373946776  0.0000
  O3     O3        0.628640182471589    0.100031959770804    0.659797816115006  0.0000
  O3     O3        0.089896209870565    0.797555096567937    0.388038980201876  0.0000
  O1     O1        0.417328466989070    0.256547743373825    0.416680423157472  0.0000
  O1     O1        0.972522379200478    0.030158532847882    0.461743171965698  0.0000
  O3     O3        0.528789041715401    0.997659497138048    0.483209286316753  0.0000
  O3     O3        0.027229710185352    0.017895730462631    0.206003889932134  0.0000
  O1     O1        0.476353865165145    0.028780985775120    0.232938575270732  0.0000
  O1     O1        0.023688617271276    0.980885949194632    0.709783008076326  0.0000
  O3     O3        0.482790065317990    0.037611816702974    0.718672471215675  0.0000
  O1     O1        0.623232969077705    0.149257884930216    0.165091975856464  0.0000
  O3     O3        0.888664764393359    0.912614770168975    0.140591293037414  0.0000
  O1     O1        0.426249573162682    0.247221943313440    0.917188442413334  0.0000
  O1     O1        0.080099010362238    0.778856442345618    0.908512984045406  0.0000
  O1     O1        0.374730767592212    0.904646956170043    0.896270138481849  0.0000
  O1     O1        0.132440531725567    0.121026981130409    0.888593538161722  0.0000
  O1     O1        0.596153059127006    0.797636402430959    0.164602570020842  0.0000
  O3     O3        0.922776560413140    0.243326237992493    0.143145794619737  0.0000
  O1     O1        0.526067464423188    0.981441948373952    0.977046966002352  0.0000
  O3     O3        0.979491375700953    0.047876954885748    0.963920153759494  0.0000
  O3     O3        0.161509028874816    0.500861703462257    0.367011643132404  0.0000
  O1     O1        0.343518504489892    0.571599172483480    0.381121441585072  0.0000
  O3     O3        0.838775560107665    0.521369085575500    0.677231238909283  0.0000
  O1     O1        0.649271790505662    0.461745296261299    0.683518039046987  0.0000
  O1     O1        0.268328835836522    0.254282408676618    0.320769799110411  0.0000
  O3     O3        0.229034144237363    0.795072591481800    0.307261986994107  0.0000
  O3     O3        0.768318220360299    0.235975346241350    0.742785358803738  0.0000
  O1     O1        0.732261159822316    0.768674633679525    0.733264211729109  0.0000
  O1     O1        0.144378864636039    0.259344072984893    0.148012330720442  0.0000
  O1     O1        0.358730637406811    0.781776304023228    0.155130881862775  0.0000
  O3     O3        0.874401826288894    0.380065747428242    0.894080354309189  0.0000
  O1     O1        0.621169134499295    0.654304064875157    0.908159877352170  0.0000
  O1     O1        0.865233571958838    0.768372606949048    0.887605544280982  0.0000
  O1     O1        0.642896072375380    0.259333536882806    0.908692466289019  0.0000
  O3     O3        0.123064150040912    0.655467016308152    0.155670400557019  0.0000
  O1     O1        0.384700470627442    0.379953742662583    0.162976350590663  0.0000
  O1     O1        0.670560571550220    0.487035380748470    0.128744591365241  0.0000
  O1     O1        0.850159693753995    0.563105723627150    0.117968521338383  0.0000
  O1     O1        0.344937877489312    0.554973577045362    0.937800648943327  0.0000
  O1     O1        0.161609937151706    0.472912851931931    0.930241567326201  0.0000
  O1     O1        0.771944697915413    0.239210554146752    0.072179862114261  0.0000
  O1     O1        0.741211291015275    0.798515768979272    0.054328721066869  0.0000
  O1     O1        0.273421601129963    0.239121077965180    0.991559771002414  0.0000
  O1     O1        0.232379299593318    0.793918154148318    0.984570306241954  0.0000
