data_c01127.vasp
_audit_creation_method             Generated by GULP
_audit_author_name                 Salvador R. G. Balestra
_symmetry_space_group_name_H-M     'P 1             '
_symmetry_Int_Tables_number        1

loop_
_symmetry_equiv_pos_site_id
_symmetry_equiv_pos_as_xyz
_cell_length_a                       17.6935
_cell_length_b                        7.8369
_cell_length_c                       10.4010
_cell_angle_alpha                   90.0129
_cell_angle_beta                    91.3510
_cell_angle_gamma                   89.9025

loop_
_atom_site_label
_atom_site_type_symbol
_atom_site_fract_x
_atom_site_fract_y
_atom_site_fract_z
_atom_site_charge
  Ge     Ge        0.052090000000021    0.000000000000000    0.372269999999958  0.0000
  Ge     Ge        0.445006697766016    0.022371038118230    0.410789856405170  0.0000
  Ge     Ge        0.942025120296162    0.997615198069234    0.617373820324170  0.0000
  Ge     Ge        0.559780408691840    0.026441246692442    0.173001901424957  0.0000
  Ge     Ge        0.452313433071832    0.021759130321939    0.917054056322504  0.0000
  Ge     Ge        0.052430473813620    0.996782065313124    0.871645672324634  0.0000
  Ge     Ge        0.172453898367264    0.283799106377332    0.301563871381761  0.0000
  Ge     Ge        0.823696590090935    0.282431406197982    0.734508803035318  0.0000
  Ge     Ge        0.661961004144901    0.745416095777180    0.740326920578552  0.0000
  Ge     Ge        0.843477709696658    0.689360939952503    0.727832672421592  0.0000
  Ge     Ge        0.642691640390554    0.335794144680396    0.743694825139650  0.0000
  Ge     Ge        0.154787741931643    0.685281779808737    0.303944631254739  0.0000
  Ge     Ge        0.653158961953123    0.339978660626217    0.056163091401033  0.0000
  Ge     Ge        0.856620825936478    0.693214943233314    0.038830803316219  0.0000
  Ge     Ge        0.353313086096254    0.335648120935685    0.995778713802573  0.0000
  Ge     Ge        0.149535721679786    0.684619388391073    0.988274061224360  0.0000
  Ge     Ge        0.329081381385561    0.747597384324756    0.992872622535043  0.0000
  Ge     Ge        0.173177582236809    0.276606435557072    0.989519825427159  0.0000
  Ge     Ge        0.675112839078052    0.748601046719524    0.051502890359098  0.0000
  Ge     Ge        0.835153253667543    0.287087236247337    0.046552090799817  0.0000
  Si     Si        0.546455974084141    0.025505161770105    0.662291213234279  0.0000
  Si     Si        0.952377189162324    0.007030407484363    0.116649449025922  0.0000
  Si     Si        0.332700804858701    0.734138572582697    0.297363174829658  0.0000
  Si     Si        0.351142070765551    0.333813022483239    0.297580381094402  0.0000
  O1     O1        0.124153455938397    0.144998069860805    0.394929509010072  0.0000
  O3     O3        0.381226149149838    0.857480077818148    0.389345130060090  0.0000
  O1     O1        0.871148000337329    0.142505349155259    0.640323150451414  0.0000
  O3     O3        0.610976810868224    0.883495955264195    0.641314238465494  0.0000
  O1     O1        0.904551700912725    0.797642601730404    0.632487203483621  0.0000
  O3     O3        0.580883231832101    0.214326727872660    0.650073091711506  0.0000
  O1     O1        0.093969500937920    0.804203225187196    0.392567646274489  0.0000
  O3     O3        0.405364334282288    0.223329138097498    0.390445651883250  0.0000
  O1     O1        0.975428708148033    0.025920819800396    0.464666746744366  0.0000
  O3     O3        0.473742642935115    0.005704248777629    0.570764741869318  0.0000
  O3     O3        0.022774188474789    0.028061358131608    0.212642943836161  0.0000
  O1     O1        0.525218586379520    0.003194525093067    0.324626264039313  0.0000
  O1     O1        0.019588636449289    0.023842700779633    0.717287412622273  0.0000
  O3     O3        0.522296207467893    0.993920579956936    0.809252853173581  0.0000
  O1     O1        0.591648846486411    0.230943937821611    0.149519820931229  0.0000
  O3     O3        0.919461309436882    0.816207351946548    0.128560631176268  0.0000
  O1     O1        0.418001150198373    0.226785258798314    0.908523583785212  0.0000
  O1     O1        0.082642993226942    0.791277609919779    0.898561528364019  0.0000
  O1     O1        0.378096598843748    0.881266738554866    0.897472278846227  0.0000
  O1     O1        0.126736828417590    0.133926256097659    0.893381228416006  0.0000
  O1     O1        0.635094005586081    0.890763424939875    0.153039211000254  0.0000
  O3     O3        0.886406641529285    0.144802027124060    0.140722482500554  0.0000
  O1     O1        0.488275024861561    0.974467826273618    0.067257029321817  0.0000
  O3     O3        0.978676245115251    0.043230425792759    0.971735953481498  0.0000
  O1     O1        0.157008502508887    0.483483772561787    0.363531866041570  0.0000
  O2     O2        0.343692700562709    0.533742221057038    0.337121061424275  0.0000
  O1     O1        0.831727720447075    0.485678636885694    0.672917325600939  0.0000
  O1     O1        0.647480575094582    0.539225979195727    0.686207235667960  0.0000
  O3     O3        0.268942461665355    0.247666422314384    0.299988542056190  0.0000
  O3     O3        0.244429669481888    0.777023897149980    0.307038893700460  0.0000
  O1     O1        0.729391764325226    0.235941784225519    0.740295308695194  0.0000
  O1     O1        0.756755472849978    0.789313685330212    0.731733808983883  0.0000
  O1     O1        0.141444031792030    0.269801603786449    0.144225703878488  0.0000
  O3     O3        0.359386072674471    0.762388778774514    0.152916734489158  0.0000
  O1     O1        0.860777119685385    0.280711139959672    0.888333882120952  0.0000
  O1     O1        0.636054824974373    0.757085715118667    0.898395162372853  0.0000
  O1     O1        0.883107542052150    0.687042992239976    0.880935812053242  0.0000
  O1     O1        0.615950439669213    0.340336350440465    0.901417222277983  0.0000
  O1     O1        0.123652781403545    0.680308631949280    0.146429472064396  0.0000
  O3     O3        0.384678505230895    0.324062336629728    0.155949155947644  0.0000
  O1     O1        0.664178875980314    0.544482462176269    0.109980655150075  0.0000
  O1     O1        0.852252894105553    0.491951564843479    0.101299432715922  0.0000
  O1     O1        0.344462760166669    0.540093886950362    0.944103838497001  0.0000
  O1     O1        0.159349441891102    0.481195787605720    0.932165248309277  0.0000
  O1     O1        0.740713329316270    0.242905764036897    0.055467798153012  0.0000
  O1     O1        0.769672864535438    0.790026845406524    0.039888187134114  0.0000
  O1     O1        0.268002295464994    0.232408814571790    0.987664085450732  0.0000
  O1     O1        0.234666104272105    0.790602524487638    0.981425127816306  0.0000
