data_c01117.vasp
_audit_creation_method             Generated by GULP
_audit_author_name                 Salvador R. G. Balestra
_symmetry_space_group_name_H-M     'P 1             '
_symmetry_Int_Tables_number        1

loop_
_symmetry_equiv_pos_site_id
_symmetry_equiv_pos_as_xyz
_cell_length_a                       17.5411
_cell_length_b                        7.8293
_cell_length_c                       10.1960
_cell_angle_alpha                   89.1473
_cell_angle_beta                    91.2109
_cell_angle_gamma                   88.3567

loop_
_atom_site_label
_atom_site_type_symbol
_atom_site_fract_x
_atom_site_fract_y
_atom_site_fract_z
_atom_site_charge
  Ge     Ge        0.052090000000021    0.000000000000000    0.372269999999958  0.0000
  Ge     Ge        0.449235050112026    0.956475337163399    0.420499088762476  0.0000
  Ge     Ge        0.940782717336480    0.968860123923828    0.616215603301036  0.0000
  Ge     Ge        0.561197670304248    0.007654753023770    0.178547514230973  0.0000
  Ge     Ge        0.454992535306278    0.950650199652234    0.919201468130134  0.0000
  Ge     Ge        0.055924372560311    0.013610890861159    0.863692217580177  0.0000
  Ge     Ge        0.151394648021277    0.315876671663543    0.304209027191936  0.0000
  Ge     Ge        0.359223629474331    0.637521903234335    0.304673487026230  0.0000
  Ge     Ge        0.827380841235414    0.266193043690632    0.726290611871910  0.0000
  Ge     Ge        0.668085528823231    0.734661229441754    0.743630644127791  0.0000
  Ge     Ge        0.644352661627413    0.333815523384647    0.736210126853376  0.0000
  Ge     Ge        0.176125496838449    0.715638573132870    0.303835867409189  0.0000
  Ge     Ge        0.655896369287017    0.317189592228213    0.054363194635790  0.0000
  Ge     Ge        0.859706126215832    0.641422582894752    0.049116631673225  0.0000
  Ge     Ge        0.329142162279610    0.235807783860124    0.991221472753695  0.0000
  Ge     Ge        0.177462799308857    0.725092334309119    0.985513713193963  0.0000
  Ge     Ge        0.358538540308727    0.638508160622908    0.988231120152521  0.0000
  Ge     Ge        0.148906925498481    0.321346073070926    0.985225480668244  0.0000
  Ge     Ge        0.679744253471267    0.721834616743705    0.061930692625876  0.0000
  Ge     Ge        0.838118671075369    0.236905665163935    0.041689203539136  0.0000
  Si     Si        0.550822197035876    0.022859494285785    0.668914798985591  0.0000
  Si     Si        0.957277949296380    0.946141522546760    0.112481785241830  0.0000
  Si     Si        0.846902502647907    0.661157707294017    0.737541327382349  0.0000
  Si     Si        0.330665882093776    0.241499393181717    0.302164469016003  0.0000
  O1     O1        0.089260350445196    0.198425325399048    0.393175184727592  0.0000
  O1     O1        0.422255016649202    0.749994154698400    0.398932350612675  0.0000
  O1     O1        0.873435231440068    0.130565323613214    0.622605512247353  0.0000
  O3     O3        0.620844889445592    0.888292435583341    0.647318830475648  0.0000
  O3     O3        0.904931168328468    0.772147287513125    0.655916004168456  0.0000
  O3     O3        0.579645241902765    0.213780289698005    0.647804848213810  0.0000
  O1     O1        0.126312796507288    0.855309820247927    0.399095513536375  0.0000
  O3     O3        0.372839812870392    0.095843616804299    0.390370837954359  0.0000
  O1     O1        0.972318679610650    0.961388556432439    0.457296898793196  0.0000
  O3     O3        0.476569848793951    0.981659687547907    0.584406042687636  0.0000
  O3     O3        0.028069583740032    0.983635507016011    0.205365972295543  0.0000
  O1     O1        0.529066537204933    0.004013831010972    0.336178945682511  0.0000
  O1     O1        0.022308144106360    0.008047600743634    0.705039615300599  0.0000
  O3     O3        0.529909007598823    0.999859384349424    0.822410189413139  0.0000
  O1     O1        0.592149348408350    0.209513910811656    0.145342538982693  0.0000
  O3     O3        0.927368100711616    0.754738648424541    0.134038376593166  0.0000
  O1     O1        0.379623220210880    0.095288055068203    0.899748671527330  0.0000
  O1     O1        0.132604521358620    0.875037097222922    0.885558022156296  0.0000
  O1     O1        0.421666115485395    0.749099985108288    0.895472966235325  0.0000
  O1     O1        0.081830359474771    0.219016996588554    0.894398270421318  0.0000
  O1     O1        0.635857564144598    0.863008027197936    0.162847652690740  0.0000
  O3     O3        0.888734848202840    0.084793789494919    0.133783701782678  0.0000
  O1     O1        0.485384106143601    0.957210346915313    0.080393918577818  0.0000
  O3     O3        0.981105018569353    0.956689742216680    0.960884167938318  0.0000
  O1     O1        0.159898095840154    0.514143083947385    0.366640467573804  0.0000
  O3     O3        0.347420934955155    0.428607460707190    0.359119373751019  0.0000
  O3     O3        0.835648162398893    0.477187640133423    0.673056709693473  0.0000
  O1     O1        0.647775264842186    0.539039805604917    0.677859384065070  0.0000
  O3     O3        0.240507594084012    0.211831869908248    0.300140386366883  0.0000
  O1     O1        0.272510453951450    0.744847896969692    0.308340292410480  0.0000
  O1     O1        0.731781052824245    0.229753867058210    0.729204495512819  0.0000
  O3     O3        0.765720844891816    0.763206326654368    0.742187623069379  0.0000
  O1     O1        0.119453088450912    0.334626823831675    0.144194680685698  0.0000
  O1     O1        0.392262044948813    0.629035176588606    0.148572168367587  0.0000
  O1     O1        0.865879851656630    0.230371545165848    0.880713555867175  0.0000
  O1     O1        0.641592821477623    0.742740003851565    0.904845233594408  0.0000
  O3     O3        0.879742760792015    0.624699651653507    0.883613088611817  0.0000
  O1     O1        0.619452932630010    0.345449394631850    0.897526334364788  0.0000
  O1     O1        0.144698331539843    0.733738514472072    0.142837849950550  0.0000
  O3     O3        0.360950655075178    0.229828740228530    0.154269601461290  0.0000
  O1     O1        0.669886409211722    0.515041650863134    0.117972468302493  0.0000
  O1     O1        0.855187723466137    0.436333060807668    0.106042247295698  0.0000
  O1     O1        0.344970478391255    0.439138912726095    0.930725804280958  0.0000
  O1     O1        0.162324132892988    0.523148975943236    0.925603257222892  0.0000
  O1     O1        0.741930387233561    0.205258970074175    0.047415460694002  0.0000
  O1     O1        0.775602530863089    0.756093535221501    0.059947258063940  0.0000
  O1     O1        0.233549829605546    0.202520301171875    0.982606549538767  0.0000
  O1     O1        0.273758306974422    0.755385479622384    0.990035996527063  0.0000
