data_c01195.vasp
_audit_creation_method             Generated by GULP
_audit_author_name                 Salvador R. G. Balestra
_symmetry_space_group_name_H-M     'P 1             '
_symmetry_Int_Tables_number        1

loop_
_symmetry_equiv_pos_site_id
_symmetry_equiv_pos_as_xyz
_cell_length_a                       17.5444
_cell_length_b                        7.8370
_cell_length_c                       10.2034
_cell_angle_alpha                   89.5912
_cell_angle_beta                    89.5591
_cell_angle_gamma                   88.3600

loop_
_atom_site_label
_atom_site_type_symbol
_atom_site_fract_x
_atom_site_fract_y
_atom_site_fract_z
_atom_site_charge
  Ge     Ge        0.052090000000021    0.000000000000000    0.372269999999958  0.0000
  Ge     Ge        0.451301897484647    0.948688476731128    0.337675905182917  0.0000
  Ge     Ge        0.944181481097737    0.957028315835891    0.626009264178739  0.0000
  Ge     Ge        0.945071460409204    0.957544248993788    0.124110923617712  0.0000
  Ge     Ge        0.448307337290706    0.959742636371654    0.832374194051478  0.0000
  Ge     Ge        0.052012330082600    0.015184514332137    0.874101919944207  0.0000
  Ge     Ge        0.145916595559888    0.313583873047203    0.253391355723621  0.0000
  Ge     Ge        0.357440949809024    0.633289641758891    0.260824207995216  0.0000
  Ge     Ge        0.825133653291977    0.254230746477119    0.692542520085611  0.0000
  Ge     Ge        0.667246142374205    0.724918656008053    0.692933870441189  0.0000
  Ge     Ge        0.641542308745353    0.326152848965279    0.693072469225645  0.0000
  Ge     Ge        0.175026414256072    0.714872520234635    0.257793805394607  0.0000
  Ge     Ge        0.326689397184430    0.231292783765168    0.256891262725288  0.0000
  Ge     Ge        0.642307726650366    0.326918970151183    0.010306313258898  0.0000
  Ge     Ge        0.848384112137213    0.650796920037381    0.004048511828959  0.0000
  Ge     Ge        0.175800520616367    0.723253774289070    0.941256989555234  0.0000
  Ge     Ge        0.358123295313785    0.640063691250256    0.946192058317488  0.0000
  Ge     Ge        0.152892871250261    0.324820235055582    0.933058157256034  0.0000
  Ge     Ge        0.667142393532488    0.728060773595952    0.012579888954504  0.0000
  Ge     Ge        0.824733414437580    0.246991610962892    0.008419748233998  0.0000
  Si     Si        0.552605862020193    0.016528603976335    0.583247277626607  0.0000
  Si     Si        0.549107226759487    0.016870383858471    0.082282604599349  0.0000
  Si     Si        0.845173078777417    0.647686102378441    0.690334342158578  0.0000
  Si     Si        0.330167279108762    0.243571874637149    0.944757179280697  0.0000
  O1     O1        0.076839504711427    0.205598105953000    0.335972207630460  0.0000
  O1     O1        0.420257489858219    0.745092629968624    0.354324600600153  0.0000
  O1     O1        0.875994931911782    0.114294267292255    0.595796340648623  0.0000
  O3     O3        0.624692963283342    0.890095834579493    0.607095314410084  0.0000
  O3     O3        0.905087544744236    0.757298048365127    0.608629540760536  0.0000
  O3     O3        0.576390913241899    0.209470764840867    0.607681903332412  0.0000
  O1     O1        0.129339426037940    0.864635188679423    0.352734453182045  0.0000
  O1     O1        0.374599097195759    0.087707296395018    0.354106665676582  0.0000
  O1     O1        0.023949177996285    0.984158029985591    0.534061177399277  0.0000
  O3     O3        0.527322844453679    0.995604159998834    0.433459104521231  0.0000
  O1     O1        0.973288764150372    0.945321461475190    0.284645858688155  0.0000
  O3     O3        0.478647386274226    0.979226292065390    0.174624667359374  0.0000
  O1     O1        0.973021120159576    0.973238499179392    0.786886385733621  0.0000
  O3     O3        0.479847703194641    0.969061535262732    0.671599865424589  0.0000
  O3     O3        0.580487089300771    0.205617301520312    0.103036087601198  0.0000
  O1     O1        0.919283279413067    0.755944652366052    0.078044570794377  0.0000
  O3     O3        0.373485139889969    0.104398399981003    0.855279076697602  0.0000
  O1     O1        0.125395775450280    0.868275400428859    0.849461825962092  0.0000
  O1     O1        0.420396358732360    0.753304742251352    0.852443006228376  0.0000
  O1     O1        0.090570035804179    0.211523610335394    0.843145674008014  0.0000
  O3     O3        0.617147039263865    0.876559971233174    0.105072534949399  0.0000
  O1     O1        0.869170519167032    0.098772054460784    0.106933962621533  0.0000
  O3     O3        0.524139002493388    0.005323707382224    0.930364951372983  0.0000
  O1     O1        0.023412362914706    0.018475531485969    0.036549819278695  0.0000
  O1     O1        0.158351547084809    0.512746708023521    0.317339946394716  0.0000
  O1     O1        0.344017435121659    0.432030982150345    0.317542508866252  0.0000
  O3     O3        0.836663713947398    0.460758380214656    0.631454887634054  0.0000
  O1     O1        0.647807736369475    0.528889283423064    0.628548237556562  0.0000
  O1     O1        0.231029632473163    0.197511359783175    0.262616820819676  0.0000
  O1     O1        0.271396832000887    0.745171094802482    0.256733754668514  0.0000
  O1     O1        0.729076033058772    0.221794739717068    0.690212414122247  0.0000
  O3     O3        0.764651297292304    0.752533723944931    0.690499756958703  0.0000
  O1     O1        0.121235178866219    0.341952344753550    0.092607775061365  0.0000
  O1     O1        0.392186158858854    0.628148491781065    0.102608840727010  0.0000
  O1     O1        0.858395107561899    0.229005258835492    0.849884297059730  0.0000
  O1     O1        0.637026541067545    0.732761345433429    0.852587131218158  0.0000
  O3     O3        0.871426513177489    0.623161034257508    0.840122714634025  0.0000
  O1     O1        0.610872786349989    0.349709624716993    0.851797009433586  0.0000
  O1     O1        0.141697515731040    0.733528115416851    0.099983904240405  0.0000
  O3     O3        0.357840331424891    0.227525590829123    0.094484948538608  0.0000
  O1     O1        0.651675552758665    0.525696127050143    0.074677448366764  0.0000
  O1     O1        0.839659632123114    0.449147810404243    0.066998324721520  0.0000
  O3     O3        0.346179064243699    0.434000446450504    0.890791404333950  0.0000
  O1     O1        0.161927203282584    0.525476897869527    0.872775992545741  0.0000
  O1     O1        0.728463455372289    0.217365550712605    0.004440074857964  0.0000
  O1     O1        0.763062248679075    0.763580131179926    0.018891536524111  0.0000
  O3     O3        0.240200408611170    0.213690952112978    0.939680766696694  0.0000
  O1     O1        0.272127402100432    0.750988116051961    0.944192330817440  0.0000
