data_c01102.vasp
_audit_creation_method             Generated by GULP
_audit_author_name                 Salvador R. G. Balestra
_symmetry_space_group_name_H-M     'P 1             '
_symmetry_Int_Tables_number        1

loop_
_symmetry_equiv_pos_site_id
_symmetry_equiv_pos_as_xyz
_cell_length_a                       17.6453
_cell_length_b                        7.8094
_cell_length_c                       10.2183
_cell_angle_alpha                   90.4843
_cell_angle_beta                    90.9477
_cell_angle_gamma                   89.1030

loop_
_atom_site_label
_atom_site_type_symbol
_atom_site_fract_x
_atom_site_fract_y
_atom_site_fract_z
_atom_site_charge
  Ge     Ge        0.052090000000021    0.000000000000000    0.372269999999958  0.0000
  Ge     Ge        0.449279613286960    0.950114356697203    0.352412788410054  0.0000
  Ge     Ge        0.943152114187564    0.936149575666299    0.619511206171785  0.0000
  Ge     Ge        0.551919119131886    0.003214471854881    0.094500241986924  0.0000
  Ge     Ge        0.443818270645060    0.951037542711377    0.838861724473389  0.0000
  Ge     Ge        0.048230217885764    0.006561363049455    0.876835318526699  0.0000
  Ge     Ge        0.146631355483338    0.312790102663024    0.257413733946541  0.0000
  Ge     Ge        0.353090484791595    0.635996522441505    0.270490120321914  0.0000
  Ge     Ge        0.822338616080505    0.221213814843474    0.700074853003443  0.0000
  Ge     Ge        0.663398972831343    0.685859958107532    0.702354879599303  0.0000
  Ge     Ge        0.845214476530924    0.620909018950152    0.685093220942123  0.0000
  Ge     Ge        0.174317612460505    0.716260890727516    0.267811817988116  0.0000
  Ge     Ge        0.326111870779590    0.227720072733421    0.262994093855901  0.0000
  Ge     Ge        0.653782480678332    0.311429767663444    0.030092249939269  0.0000
  Ge     Ge        0.854816733437668    0.640208986998301    0.004629551845628  0.0000
  Ge     Ge        0.327034251663218    0.244299091494187    0.947003649150358  0.0000
  Ge     Ge        0.173611894987197    0.723352848695913    0.950923241306255  0.0000
  Ge     Ge        0.146941683258991    0.323699857606913    0.937743865397649  0.0000
  Ge     Ge        0.674684341423873    0.715522318524094    0.018562596819934  0.0000
  Ge     Ge        0.832558730686273    0.233364810257944    0.017566867293158  0.0000
  Si     Si        0.551441759211261    0.981699113163497    0.601650428464591  0.0000
  Si     Si        0.949432237093368    0.947575350472885    0.124114698180023  0.0000
  Si     Si        0.644918952996297    0.289719238211720    0.718995546039243  0.0000
  Si     Si        0.350583582760646    0.645993710229650    0.959910893903461  0.0000
  O1     O1        0.079139230524416    0.204496778737068    0.340901983703230  0.0000
  O1     O1        0.418288723346064    0.743975698842219    0.364648147967810  0.0000
  O1     O1        0.865914224172647    0.072564834139392    0.603755773797982  0.0000
  O3     O3        0.612677942294719    0.828742575677970    0.606277337343560  0.0000
  O1     O1        0.908400336487784    0.734360076380829    0.595215056902724  0.0000
  O2     O2        0.583777827460464    0.163971125048204    0.651334082437973  0.0000
  O1     O1        0.127469651627480    0.861278735737260    0.364317147754172  0.0000
  O1     O1        0.373983197809748    0.090787729931524    0.365456388156305  0.0000
  O1     O1        0.018682372448441    0.990685292895975    0.529596169473768  0.0000
  O3     O3        0.525462291252032    0.000636581004022    0.450820122738885  0.0000
  O3     O3        0.976007544691032    0.938343579825654    0.274759132138432  0.0000
  O1     O1        0.478144535516402    0.968611034573298    0.192383622787430  0.0000
  O1     O1        0.973604237223710    0.950709159533122    0.781635262648590  0.0000
  O3     O3        0.476049133688924    0.936020658654174    0.679289621544977  0.0000
  O1     O1        0.589075535513299    0.204530258491524    0.118088894707047  0.0000
  O3     O3        0.924649475680963    0.757849463588770    0.080920762957702  0.0000
  O1     O1        0.374907415829090    0.108019439155261    0.844958418967513  0.0000
  O1     O1        0.125869344054380    0.871656544629164    0.859505689724568  0.0000
  O3     O3        0.409768832566595    0.750673781861532    0.876936579873611  0.0000
  O1     O1        0.080789077387519    0.209857405658415    0.850490496113523  0.0000
  O1     O1        0.625687823933167    0.857255170727998    0.113227982723357  0.0000
  O3     O3        0.880661389549240    0.083709698671312    0.110973052840166  0.0000
  O1     O1        0.520678040279525    0.996532946154806    0.934100629487835  0.0000
  O3     O3        0.020413194302400    0.005791864121850    0.039902031682461  0.0000
  O1     O1        0.160553189206639    0.511800490128007    0.324566809916177  0.0000
  O1     O1        0.340867759871523    0.432914708032549    0.322467812713525  0.0000
  O1     O1        0.837025671741416    0.416369224290285    0.628450556583404  0.0000
  O3     O3        0.648580105526253    0.474543921242602    0.650662464329613  0.0000
  O1     O1        0.230291968614940    0.194391508239382    0.260847238759000  0.0000
  O1     O1        0.269775285487103    0.753051594624570    0.274390411629500  0.0000
  O3     O3        0.725783022960709    0.191971119456218    0.712605274737072  0.0000
  O1     O1        0.758098779930782    0.723624221231717    0.686581691714054  0.0000
  O1     O1        0.119426673644311    0.344130720534935    0.098164726620384  0.0000
  O3     O3        0.381276749462690    0.626118369293458    0.108069074185950  0.0000
  O1     O1        0.859565643980141    0.213659440092088    0.857074147200481  0.0000
  O1     O1        0.637652156817146    0.718919455101868    0.861145434918950  0.0000
  O1     O1        0.877840276318555    0.608147337831573    0.844456548189408  0.0000
  O3     O3        0.623397524112340    0.328876473558163    0.867432883374583  0.0000
  O1     O1        0.141887401585243    0.735253547840856    0.109012344935718  0.0000
  O1     O1        0.358700119890788    0.211048279401298    0.104801617289747  0.0000
  O1     O1        0.665872096093045    0.514670997184375    0.085971834137664  0.0000
  O1     O1        0.848490818624323    0.440003473846863    0.071827117001064  0.0000
  O3     O3        0.338748924579625    0.456759856242181    0.901295813160302  0.0000
  O1     O1        0.156144296833405    0.526181807020690    0.880098729277175  0.0000
  O1     O1        0.737685007346113    0.196482803080012    0.030586788894361  0.0000
  O1     O1        0.770215378151440    0.752231154844271    0.012350436855628  0.0000
  O1     O1        0.231608104017938    0.210108021741658    0.937359238861689  0.0000
  O3     O3        0.270863373703889    0.751141067810091    0.958491793261754  0.0000
