data_c01169.vasp
_audit_creation_method             Generated by GULP
_audit_author_name                 Salvador R. G. Balestra
_symmetry_space_group_name_H-M     'P 1             '
_symmetry_Int_Tables_number        1

loop_
_symmetry_equiv_pos_site_id
_symmetry_equiv_pos_as_xyz
_cell_length_a                       17.7556
_cell_length_b                        7.8405
_cell_length_c                       10.3573
_cell_angle_alpha                   89.4123
_cell_angle_beta                    89.9878
_cell_angle_gamma                   90.2760

loop_
_atom_site_label
_atom_site_type_symbol
_atom_site_fract_x
_atom_site_fract_y
_atom_site_fract_z
_atom_site_charge
  Ge     Ge        0.052090000000021    0.000000000000000    0.372269999999958  0.0000
  Ge     Ge        0.448370409759811    0.041435940876810    0.367104895985500  0.0000
  Ge     Ge        0.947480035588294    0.030546045430192    0.623194141738014  0.0000
  Ge     Ge        0.940841364652100    0.027460761802931    0.126846737826706  0.0000
  Ge     Ge        0.455109144864927    0.053132015480778    0.875845221014595  0.0000
  Ge     Ge        0.050251227643989    0.027363511360828    0.880536211517103  0.0000
  Ge     Ge        0.173700452708717    0.288378047259482    0.254786869665514  0.0000
  Ge     Ge        0.331949746264917    0.748602435027790    0.266172509357096  0.0000
  Ge     Ge        0.827712248886990    0.310912129462274    0.701625424805750  0.0000
  Ge     Ge        0.663104826721610    0.769718677660735    0.696888863287348  0.0000
  Ge     Ge        0.842766207138667    0.720347682783878    0.696350581347798  0.0000
  Ge     Ge        0.646803407998060    0.360561750706988    0.702964079295763  0.0000
  Ge     Ge        0.150892384575946    0.691208065320924    0.269860490422860  0.0000
  Ge     Ge        0.645768800780226    0.364062527216602    0.015966580335958  0.0000
  Ge     Ge        0.353520620710243    0.366588918919982    0.946319710102578  0.0000
  Ge     Ge        0.151632698800327    0.710989990427259    0.953933092502419  0.0000
  Ge     Ge        0.331578474616238    0.774544699965146    0.953944508088325  0.0000
  Ge     Ge        0.175135935337407    0.306698469369532    0.939084476547996  0.0000
  Ge     Ge        0.667274197307957    0.769491491273163    0.010665398555469  0.0000
  Ge     Ge        0.828083705716375    0.320182199925759    0.012385505453818  0.0000
  Si     Si        0.551223303064838    0.053029479339530    0.617534740166079  0.0000
  Si     Si        0.556878825235297    0.047350047413383    0.126274105721439  0.0000
  Si     Si        0.349757620025536    0.348235831841138    0.255142933062449  0.0000
  Si     Si        0.844886771983145    0.721396995018786    0.003344113394310  0.0000
  O1     O1        0.126927520370006    0.130505139573133    0.334912958716942  0.0000
  O1     O1        0.384581517619159    0.878357679481042    0.363212636135573  0.0000
  O1     O1        0.878817587038009    0.182709875090132    0.602489302003613  0.0000
  O3     O3        0.612938186885202    0.905862597884150    0.596998709401755  0.0000
  O1     O1        0.906419094880406    0.832945016537584    0.606025948927147  0.0000
  O3     O3        0.588884049691043    0.238926423959612    0.605458392525158  0.0000
  O1     O1        0.085373862143091    0.796041133413985    0.360413536870058  0.0000
  O3     O3        0.408557689226469    0.237431407353623    0.336691576457689  0.0000
  O1     O1        0.024907100800069    0.047023937008852    0.527590146993740  0.0000
  O3     O3        0.480483213280344    0.039224004819042    0.524809847516923  0.0000
  O1     O1        0.971134125656846    0.025972006532067    0.284101949014097  0.0000
  O3     O3        0.526063793172221    0.014755038506713    0.269548754244002  0.0000
  O1     O1        0.975648101804716    0.055141733796873    0.781209039379277  0.0000
  O3     O3        0.524685622780910    0.022872499229446    0.765579790467481  0.0000
  O3     O3        0.583515691052847    0.242406746613622    0.106290742131891  0.0000
  O3     O3        0.902719337147645    0.831332870125504    0.086340657189331  0.0000
  O1     O1        0.421935879996478    0.258164480893326    0.866273760950256  0.0000
  O1     O1        0.087941960513663    0.826856227686878    0.866598644788277  0.0000
  O1     O1        0.380060258923648    0.915824829170109    0.859062661196595  0.0000
  O1     O1        0.121624251273499    0.172576832283721    0.849156421149492  0.0000
  O3     O3        0.628042528885524    0.924778561258415    0.104110748567960  0.0000
  O1     O1        0.876463691431833    0.188805982267110    0.114403161820968  0.0000
  O3     O3        0.490511628235950    0.002468519295463    0.027189460544175  0.0000
  O1     O1        0.019876559675301    0.062008310120204    0.036112400203936  0.0000
  O1     O1        0.156461629739596    0.483691818379780    0.322467875576215  0.0000
  O3     O3        0.341269274636444    0.535733387541634    0.313419898876744  0.0000
  O1     O1        0.835393093064766    0.516795162023609    0.643034336029807  0.0000
  O1     O1        0.652831484028487    0.563562212559662    0.642607552751553  0.0000
  O3     O3        0.269844724852192    0.249849210079665    0.257215819383811  0.0000
  O1     O1        0.237652643942812    0.790195815079540    0.278358854902109  0.0000
  O1     O1        0.733465214169216    0.263145876880520    0.706313742079274  0.0000
  O1     O1        0.757052919479269    0.821063000700418    0.690222349128634  0.0000
  O1     O1        0.145614560419761    0.295731657702244    0.097240326889503  0.0000
  O1     O1        0.362547839616940    0.781295467237483    0.111446370255150  0.0000
  O1     O1        0.860822152422389    0.296701633927331    0.858025316962658  0.0000
  O1     O1        0.634180276524027    0.775163984428999    0.855353143832816  0.0000
  O3     O3        0.873352184364958    0.714013885557533    0.856116146928337  0.0000
  O1     O1        0.613761130571185    0.366546959228477    0.859025410158804  0.0000
  O1     O1        0.121488999137116    0.696271613011545    0.111497410011583  0.0000
  O3     O3        0.378000997674631    0.366775769756585    0.108534288432455  0.0000
  O1     O1        0.649239115725626    0.568901724769629    0.072527097007203  0.0000
  O3     O3        0.838857312774289    0.530973208238226    0.060440940912631  0.0000
  O1     O1        0.345414311370475    0.571831281690334    0.894041082355788  0.0000
  O1     O1        0.163246224885651    0.514818343707538    0.887512057851608  0.0000
  O1     O1        0.733729641545880    0.275187316991585    0.017826497783172  0.0000
  O3     O3        0.763109280798429    0.809120924510098    0.005318563527751  0.0000
  O1     O1        0.269172134851348    0.260260698935722    0.929704167141014  0.0000
  O1     O1        0.237129436410527    0.816967177595508    0.955190636194716  0.0000
