data_c01173.vasp
_audit_creation_method             Generated by GULP
_audit_author_name                 Salvador R. G. Balestra
_symmetry_space_group_name_H-M     'P 1             '
_symmetry_Int_Tables_number        1

loop_
_symmetry_equiv_pos_site_id
_symmetry_equiv_pos_as_xyz
_cell_length_a                       17.7255
_cell_length_b                        7.8996
_cell_length_c                       10.2865
_cell_angle_alpha                   90.7368
_cell_angle_beta                    89.4408
_cell_angle_gamma                   89.9065

loop_
_atom_site_label
_atom_site_type_symbol
_atom_site_fract_x
_atom_site_fract_y
_atom_site_fract_z
_atom_site_charge
  Ge     Ge        0.052090000000021    0.000000000000000    0.372269999999958  0.0000
  Ge     Ge        0.446548188801836    0.983296627646938    0.341436215371516  0.0000
  Ge     Ge        0.948448989510028    0.996509984816692    0.626560178715232  0.0000
  Ge     Ge        0.937798090643235    0.003469985796527    0.135256508015356  0.0000
  Ge     Ge        0.444848114394411    0.966743061179921    0.832300435065140  0.0000
  Ge     Ge        0.049748351362554    0.989275620207005    0.887004223156362  0.0000
  Ge     Ge        0.148686569922259    0.314828943182707    0.261273096429389  0.0000
  Ge     Ge        0.343722920244897    0.672508269507230    0.257712336274772  0.0000
  Ge     Ge        0.844873093865658    0.308049525038510    0.698616649392807  0.0000
  Ge     Ge        0.645552163244540    0.665919725169670    0.694190282965514  0.0000
  Ge     Ge        0.827580631640537    0.712801126289254    0.697008332575233  0.0000
  Ge     Ge        0.663548254770492    0.262605624832588    0.697918496898268  0.0000
  Ge     Ge        0.329797783429960    0.269368706297827    0.267964260511700  0.0000
  Ge     Ge        0.659789060049827    0.268807468437383    0.014457579018209  0.0000
  Ge     Ge        0.822442760850406    0.718727116265595    0.011231569096171  0.0000
  Ge     Ge        0.328720592488479    0.252160038502811    0.952986698325772  0.0000
  Ge     Ge        0.166796798672250    0.695569198362910    0.942952877855399  0.0000
  Ge     Ge        0.348706636121097    0.655045709502175    0.939600836003155  0.0000
  Ge     Ge        0.640365501474379    0.670342998484544    0.008321186406989  0.0000
  Ge     Ge        0.841810144763786    0.313610807809498    0.016308012026557  0.0000
  Si     Si        0.551767008948751    0.973710406325267    0.585588132545447  0.0000
  Si     Si        0.545526524691186    0.985306761146927    0.084253514194871  0.0000
  Si     Si        0.165794565010096    0.713081785536579    0.251376878094841  0.0000
  Si     Si        0.149784860678323    0.300060795590831    0.955253691629497  0.0000
  O1     O1        0.085965684354058    0.201812259358755    0.351527832138871  0.0000
  O1     O1        0.400539565008780    0.794176980192818    0.353800931847944  0.0000
  O1     O1        0.906536104512509    0.190649004575796    0.605960877970061  0.0000
  O3     O3        0.583900745847284    0.786009039106697    0.604692730566257  0.0000
  O1     O1        0.880754423402638    0.843352306829626    0.602462344233393  0.0000
  O3     O3        0.616202419615095    0.111533421582399    0.609262641377875  0.0000
  O3     O3        0.119571227924953    0.849503951662360    0.335889661236618  0.0000
  O1     O1        0.381613606424500    0.141418361904453    0.366142757979638  0.0000
  O1     O1        0.027552076624246    0.973670463683189    0.533112762849582  0.0000
  O3     O3        0.524210919760965    0.993878025382519    0.438536780566804  0.0000
  O1     O1        0.968202542028148    0.980553319659465    0.291983721042049  0.0000
  O3     O3        0.476256395847726    0.008362186033868    0.181334621449760  0.0000
  O1     O1        0.974359359441509    0.982688385619415    0.787488039832285  0.0000
  O3     O3        0.478747927658956    0.003555210308335    0.677557968780007  0.0000
  O3     O3        0.609620701247812    0.126765428687870    0.107069507871758  0.0000
  O1     O1        0.865861038771429    0.863156919570861    0.108983068198452  0.0000
  O1     O1        0.368840794110409    0.097996320757483    0.858655913275791  0.0000
  O1     O1        0.112387442402262    0.826295811985874    0.853390890462778  0.0000
  O1     O1        0.413126146178591    0.763386969152921    0.848100360735735  0.0000
  O3     O3        0.096480566345436    0.181450623389558    0.869478470761123  0.0000
  O3     O3        0.580414661907242    0.798359604860861    0.099708414800283  0.0000
  O1     O1        0.904302732610380    0.204311800512341    0.108454696016881  0.0000
  O3     O3        0.517495973665270    0.011798084607142    0.937035596027892  0.0000
  O1     O1        0.016837270490307    0.963525311280056    0.042524811465554  0.0000
  O3     O3        0.154480446198473    0.525528681311999    0.309391711296821  0.0000
  O1     O1        0.340738909847657    0.474860404611647    0.320736430021722  0.0000
  O1     O1        0.837750861746255    0.508096280632441    0.639921512919297  0.0000
  O1     O1        0.651996230440219    0.462434040677516    0.634624259376055  0.0000
  O1     O1        0.235481197407099    0.222123791196933    0.275594931465716  0.0000
  O3     O3        0.253834043915283    0.760189886739582    0.252859171674932  0.0000
  O1     O1        0.757393816739377    0.212441711741170    0.696954330779107  0.0000
  O1     O1        0.732931679055565    0.759604427270721    0.693657154362163  0.0000
  O3     O3        0.117278269288285    0.308444436976525    0.102275294793900  0.0000
  O1     O1        0.375924144628773    0.666473817555487    0.099716851768327  0.0000
  O1     O1        0.873716944082680    0.314758485931241    0.858065123238067  0.0000
  O1     O1        0.609979339204847    0.660427454825188    0.850050550537730  0.0000
  O1     O1        0.858143881410278    0.725174099583094    0.855473738589043  0.0000
  O1     O1        0.631423540266455    0.268932268176977    0.855292369838765  0.0000
  O3     O3        0.137623442703642    0.714715982021010    0.103810715012835  0.0000
  O1     O1        0.361022199242880    0.250310648261532    0.109414648825679  0.0000
  O1     O1        0.644732901801548    0.472376970379304    0.073115453570974  0.0000
  O1     O1        0.833848346613620    0.518334549564444    0.071827664845989  0.0000
  O1     O1        0.346608913262013    0.447938450840261    0.888768976359076  0.0000
  O3     O3        0.154749304736372    0.485606999698294    0.894712546018688  0.0000
  O1     O1        0.753800985323910    0.220756234513197    0.020906605650829  0.0000
  O1     O1        0.727896361606965    0.762078165699371    0.003914621103806  0.0000
  O3     O3        0.232612110591854    0.217747623036921    0.963024434784521  0.0000
  O1     O1        0.260163858549392    0.743195306287412    0.926363480825682  0.0000
