data_c01121.vasp
_audit_creation_method             Generated by GULP
_audit_author_name                 Salvador R. G. Balestra
_symmetry_space_group_name_H-M     'P 1             '
_symmetry_Int_Tables_number        1

loop_
_symmetry_equiv_pos_site_id
_symmetry_equiv_pos_as_xyz
_cell_length_a                       17.5902
_cell_length_b                        7.8556
_cell_length_c                       10.1127
_cell_angle_alpha                   90.0496
_cell_angle_beta                    90.9024
_cell_angle_gamma                   88.0013

loop_
_atom_site_label
_atom_site_type_symbol
_atom_site_fract_x
_atom_site_fract_y
_atom_site_fract_z
_atom_site_charge
  Ge     Ge        0.052090000000021    0.000000000000000    0.372269999999958  0.0000
  Ge     Ge        0.444798768512238    0.946398503443634    0.353330048665933  0.0000
  Ge     Ge        0.940499012607581    0.949845668178748    0.616779607136993  0.0000
  Ge     Ge        0.547006621517694    0.009885334946530    0.096090451758748  0.0000
  Ge     Ge        0.442586180860728    0.951146419999516    0.835614381696324  0.0000
  Ge     Ge        0.042204932527040    0.011175327288570    0.878513791412834  0.0000
  Ge     Ge        0.141061534306713    0.319449799438925    0.261788146828841  0.0000
  Ge     Ge        0.347278756530512    0.635208777791047    0.275105754028478  0.0000
  Ge     Ge        0.822098483238856    0.243457093927629    0.694845128025365  0.0000
  Ge     Ge        0.840213877510703    0.642287500373875    0.690209597811874  0.0000
  Ge     Ge        0.638822304319787    0.311654759425148    0.711247562959368  0.0000
  Ge     Ge        0.323434179251466    0.235598141924458    0.271407763075585  0.0000
  Ge     Ge        0.645829627230439    0.317773213718152    0.029334024443548  0.0000
  Ge     Ge        0.852411962595588    0.646407214629493    0.012703141076732  0.0000
  Ge     Ge        0.321750993356176    0.237257228889370    0.951078464006790  0.0000
  Ge     Ge        0.169443165212501    0.722080679274053    0.948655910728577  0.0000
  Ge     Ge        0.350395115311284    0.640582832706639    0.953151900008436  0.0000
  Ge     Ge        0.139937291652494    0.323371107282740    0.943357707670307  0.0000
  Ge     Ge        0.671106910698226    0.716791678995541    0.025390695624453  0.0000
  Ge     Ge        0.828620060650080    0.242867069869573    0.015076062194946  0.0000
  Si     Si        0.549735411613542    0.998423572781048    0.596797433998239  0.0000
  Si     Si        0.943994990729175    0.952344958222879    0.129125994059911  0.0000
  Si     Si        0.661669964530630    0.706168432466304    0.710526319390790  0.0000
  Si     Si        0.169040522800578    0.711643845363488    0.262857160809393  0.0000
  O1     O1        0.079393962995622    0.205240823715588    0.353777135488252  0.0000
  O1     O1        0.408229394152645    0.749047684374772    0.371696178513707  0.0000
  O1     O1        0.869991273220646    0.104371996556904    0.593714033449173  0.0000
  O2     O2        0.615211752252014    0.856882876434490    0.633448898277707  0.0000
  O1     O1        0.898715433195988    0.757683696469300    0.594368762238624  0.0000
  O3     O3        0.576671703179573    0.188822044390754    0.620880859310915  0.0000
  O3     O3        0.126735991437127    0.856379587568342    0.348439142011283  0.0000
  O1     O1        0.371799060866744    0.094341948684329    0.372993014278472  0.0000
  O1     O1        0.021769555851141    0.977436761861000    0.532183846884025  0.0000
  O3     O3        0.526887621512647    0.980120998056736    0.443059089650607  0.0000
  O3     O3        0.971005055748676    0.955264092453568    0.281311875952166  0.0000
  O1     O1        0.471654449770021    0.966616893391906    0.190170805740559  0.0000
  O1     O1        0.966889145756276    0.962235072239825    0.782603200374441  0.0000
  O3     O3        0.472416982925633    0.962276703680169    0.673131155951678  0.0000
  O1     O1        0.585312946251309    0.205767420692572    0.124150925174750  0.0000
  O3     O3        0.921102882539266    0.761058592276599    0.092766879648478  0.0000
  O1     O1        0.364858766155604    0.086661375447078    0.853673330233294  0.0000
  O1     O1        0.118066341395629    0.868871434123589    0.859306094790000  0.0000
  O1     O1        0.417201495947786    0.745995779422384    0.867449670456718  0.0000
  O1     O1        0.075986218834977    0.211197797921733    0.851527755516430  0.0000
  O1     O1        0.620754442163363    0.860655853520347    0.115922178409559  0.0000
  O3     O3        0.873059751542253    0.084191768177344    0.108150868705969  0.0000
  O1     O1        0.517330723463605    0.008748299807315    0.932868667191527  0.0000
  O3     O3        0.015190360805836    0.006996080157591    0.043409873552576  0.0000
  O3     O3        0.153410012179666    0.524677042449730    0.321171462507252  0.0000
  O1     O1        0.339710475437805    0.435437693260421    0.335081311176084  0.0000
  O1     O1        0.833474154149465    0.442670362909229    0.628381919600024  0.0000
  O3     O3        0.644996654010337    0.519698485790141    0.651538292676678  0.0000
  O1     O1        0.227357063408266    0.209261214755086    0.267498544665553  0.0000
  O3     O3        0.258856368642709    0.741616940033026    0.266887800261009  0.0000
  O1     O1        0.726570948584206    0.211071740255899    0.702548615871673  0.0000
  O3     O3        0.750515598989046    0.741997806006521    0.700103548648641  0.0000
  O1     O1        0.107493077127097    0.334682413657085    0.103309494404328  0.0000
  O1     O1        0.379597155364563    0.625109584864880    0.115763045725914  0.0000
  O1     O1        0.858708621862058    0.231892031665813    0.854231848549627  0.0000
  O3     O3        0.637384293859854    0.710959965329250    0.862767594997144  0.0000
  O1     O1        0.875621269425275    0.627984158895990    0.849390889834604  0.0000
  O1     O1        0.608851910641087    0.326112098268824    0.869894470236332  0.0000
  O3     O3        0.139587506176777    0.721865988761468    0.111791101116649  0.0000
  O1     O1        0.355896492834047    0.221091645534607    0.111480541716245  0.0000
  O1     O1        0.657936395564103    0.516907497721388    0.090294201835101  0.0000
  O1     O1        0.846951529584535    0.443688131242051    0.074958585027869  0.0000
  O1     O1        0.338532205107780    0.439219487405483    0.893291550258165  0.0000
  O1     O1        0.152298447765496    0.522762499981937    0.883762601296837  0.0000
  O1     O1        0.733018244163816    0.211834482924752    0.018609075484996  0.0000
  O1     O1        0.766120437311264    0.754045521390296    0.027180515110448  0.0000
  O1     O1        0.225664400313246    0.210272597452274    0.950488661940814  0.0000
  O1     O1        0.264751982536260    0.754833106166416    0.943537617436647  0.0000
