data_c01137.vasp
_audit_creation_method             Generated by GULP
_audit_author_name                 Salvador R. G. Balestra
_symmetry_space_group_name_H-M     'P 1             '
_symmetry_Int_Tables_number        1

loop_
_symmetry_equiv_pos_site_id
_symmetry_equiv_pos_as_xyz
_cell_length_a                       17.7324
_cell_length_b                        7.8445
_cell_length_c                       10.0463
_cell_angle_alpha                   90.3846
_cell_angle_beta                    90.6784
_cell_angle_gamma                   88.6779

loop_
_atom_site_label
_atom_site_type_symbol
_atom_site_fract_x
_atom_site_fract_y
_atom_site_fract_z
_atom_site_charge
  Ge     Ge        0.052090000000021    0.000000000000000    0.372269999999958  0.0000
  Ge     Ge        0.449147009893825    0.968061758185430    0.375315521238835  0.0000
  Ge     Ge        0.943514514778242    0.943924443975297    0.622096024743270  0.0000
  Ge     Ge        0.554284818227861    0.984575127581161    0.123090086180028  0.0000
  Ge     Ge        0.442296217621442    0.916099453847029    0.879315244474010  0.0000
  Ge     Ge        0.145167120182701    0.315330748369079    0.280807288927601  0.0000
  Ge     Ge        0.352186587226345    0.657271743358748    0.247531799528935  0.0000
  Ge     Ge        0.824245224501312    0.242302703540152    0.671160000869858  0.0000
  Ge     Ge        0.662134892198901    0.705638869764611    0.708475726361675  0.0000
  Ge     Ge        0.650866511354503    0.311641975560115    0.675034222867272  0.0000
  Ge     Ge        0.174644023602288    0.716424213374963    0.257696474356581  0.0000
  Ge     Ge        0.325958027737366    0.252312076559391    0.276667186975225  0.0000
  Ge     Ge        0.655097771556933    0.290298004518516    0.009673303632768  0.0000
  Ge     Ge        0.852527047439226    0.620237267830063    0.012859273227694  0.0000
  Ge     Ge        0.321576430544484    0.210932049787057    0.954961503489270  0.0000
  Ge     Ge        0.163245133155235    0.678537126559196    0.932141503507608  0.0000
  Ge     Ge        0.340829459749555    0.612812702849239    0.925449399435854  0.0000
  Ge     Ge        0.141560016777178    0.279254446349769    0.955512789891488  0.0000
  Ge     Ge        0.669493445395322    0.687737982533790    0.028396188057255  0.0000
  Ge     Ge        0.828937866940906    0.209305544135078    0.003730951758893  0.0000
  Si     Si        0.548374520756313    0.997702906354598    0.638693347668027  0.0000
  Si     Si        0.947417386834654    0.920204924776765    0.123312987331730  0.0000
  Si     Si        0.046302798719430    0.967903216972569    0.878132885185007  0.0000
  Si     Si        0.842193285205602    0.642758748954271    0.701040144270858  0.0000
  O1     O1        0.078674657154506    0.209408695592028    0.369093642676742  0.0000
  O1     O1        0.421608010111503    0.768537365431524    0.326875811401003  0.0000
  O1     O1        0.886114697056744    0.116361392835704    0.583210005823634  0.0000
  O3     O3        0.620986519453833    0.873328551459805    0.620209377917105  0.0000
  O3     O3        0.891781784300116    0.760037054975352    0.608043072739612  0.0000
  O3     O3        0.574729908109696    0.192962198703188    0.627159030497269  0.0000
  O1     O1        0.132418464759397    0.885669257658843    0.336288229597467  0.0000
  O1     O1        0.374581402833549    0.110300919220076    0.375845400751414  0.0000
  O1     O1        0.022265989839131    0.944715620319130    0.527712497514695  0.0000
  O3     O3        0.480906016048093    0.956550447552019    0.539454714995224  0.0000
  O3     O3        0.974551781746904    0.954056822494663    0.272771479046705  0.0000
  O1     O1        0.523095772023188    0.032357115436310    0.280928370983898  0.0000
  O3     O3        0.973261037965020    0.954854144271332    0.787150839543048  0.0000
  O3     O3        0.519142767318603    0.971270863479771    0.787835964995051  0.0000
  O1     O1        0.579755019052070    0.172590202871510    0.047830992930368  0.0000
  O3     O3        0.916447490759267    0.730375377718675    0.109629625028095  0.0000
  O1     O1        0.367793090285352    0.059371348636713    0.863737171692552  0.0000
  O3     O3        0.111667276556712    0.829877706730208    0.842885399892028  0.0000
  O1     O1        0.406369430653582    0.721736106132055    0.836551065489657  0.0000
  O3     O3        0.078160844016211    0.156919885232129    0.868007897460959  0.0000
  O1     O1        0.626965858603439    0.838484131082557    0.129256453421796  0.0000
  O3     O3        0.883557328136987    0.057213524056581    0.082861047478911  0.0000
  O1     O1        0.476190955955480    0.912874998051354    0.040483715862528  0.0000
  O2     O2        0.022110513795609    0.933938689163016    0.031850886476657  0.0000
  O1     O1        0.126136630871975    0.530954923634064    0.281582087474625  0.0000
  O1     O1        0.371543854423506    0.441542417536720    0.263248047938557  0.0000
  O3     O3        0.837504447647890    0.455947097719731    0.637928969904652  0.0000
  O1     O1        0.638711990851188    0.520384947115956    0.626783072738754  0.0000
  O1     O1        0.236856585515085    0.288327252285791    0.337353313993170  0.0000
  O1     O1        0.265285989585547    0.697481360654312    0.318163884120350  0.0000
  O1     O1        0.732482652446580    0.213471783869682    0.621190483173118  0.0000
  O3     O3        0.758874484693569    0.727965866668926    0.714578470426173  0.0000
  O1     O1        0.141914665400759    0.233082677202624    0.121561558053392  0.0000
  O1     O1        0.344558107927696    0.705734257570218    0.081935667245419  0.0000
  O1     O1        0.838839769481297    0.188838440197304    0.835216037323208  0.0000
  O1     O1        0.632245306762298    0.719411131155721    0.870616922485552  0.0000
  O3     O3        0.878912001952460    0.628101838140485    0.847696304539154  0.0000
  O1     O1        0.666145668132672    0.340854482364240    0.844109810216290  0.0000
  O1     O1        0.180547398156178    0.751537535780607    0.089750801186176  0.0000
  O1     O1        0.321248601841644    0.159165524694185    0.120558426727926  0.0000
  O1     O1        0.649854821139244    0.487517487707315    0.085141326584294  0.0000
  O1     O1        0.853499553110842    0.410466406136248    0.057163645654226  0.0000
  O1     O1        0.366035097386633    0.402661483513348    0.935313819851400  0.0000
  O1     O1        0.116293301737456    0.489568724890493    0.933719896183336  0.0000
  O1     O1        0.737325445909054    0.180582266000120    0.050265829035007  0.0000
  O1     O1        0.765083846640971    0.713391284629764    0.031196037133985  0.0000
  O1     O1        0.230786374155858    0.240255923857826    0.897221157379257  0.0000
  O1     O1        0.250435090941111    0.639123936787926    0.862950472041100  0.0000
