data_c01199.vasp
_audit_creation_method             Generated by GULP
_audit_author_name                 Salvador R. G. Balestra
_symmetry_space_group_name_H-M     'P 1             '
_symmetry_Int_Tables_number        1

loop_
_symmetry_equiv_pos_site_id
_symmetry_equiv_pos_as_xyz
_cell_length_a                       17.5393
_cell_length_b                        7.8321
_cell_length_c                       10.1527
_cell_angle_alpha                   89.8678
_cell_angle_beta                    89.2691
_cell_angle_gamma                   88.2768

loop_
_atom_site_label
_atom_site_type_symbol
_atom_site_fract_x
_atom_site_fract_y
_atom_site_fract_z
_atom_site_charge
  Ge     Ge        0.052090000000021    0.000000000000000    0.372269999999958  0.0000
  Ge     Ge        0.447458864656068    0.954462705849498    0.337386083474783  0.0000
  Ge     Ge        0.944630024145056    0.948375527742426    0.624925803513568  0.0000
  Ge     Ge        0.940885451422646    0.957097656061297    0.129507075324422  0.0000
  Ge     Ge        0.449294792121022    0.955026795811160    0.827551508123580  0.0000
  Ge     Ge        0.047629868990087    0.017515711066236    0.877026368562150  0.0000
  Ge     Ge        0.141830076779566    0.321495655231088    0.255480043538885  0.0000
  Ge     Ge        0.349876875882436    0.639421964400041    0.264980393175619  0.0000
  Ge     Ge        0.825508354500018    0.246186465227971    0.693617239778892  0.0000
  Ge     Ge        0.667368608361968    0.718832479277152    0.688502527920301  0.0000
  Ge     Ge        0.642039525630885    0.319448675125955    0.691573368540271  0.0000
  Ge     Ge        0.324596506963917    0.240100051459096    0.261432250401606  0.0000
  Ge     Ge        0.639514795174783    0.327655579679669    0.010387808068469  0.0000
  Ge     Ge        0.845533791389913    0.650026382103246    0.005581684966659  0.0000
  Ge     Ge        0.326532038418024    0.240534678606975    0.941585540885669  0.0000
  Ge     Ge        0.174785755263608    0.729060568121313    0.943399977660316  0.0000
  Ge     Ge        0.355094731605099    0.644145130272084    0.944524146343469  0.0000
  Ge     Ge        0.145476123358002    0.328392362172911    0.937195616060701  0.0000
  Ge     Ge        0.664018324185169    0.729676185559992    0.008233480621455  0.0000
  Ge     Ge        0.821557052100630    0.245240941322139    0.011051920409849  0.0000
  Si     Si        0.554755224963293    0.007941600064519    0.577093573355678  0.0000
  Si     Si        0.546043609485817    0.019525184629312    0.081479823966720  0.0000
  Si     Si        0.845781221968057    0.640816099991418    0.691795534338583  0.0000
  Si     Si        0.171048702399454    0.715579408384643    0.256226441231463  0.0000
  O1     O1        0.077889111084502    0.207344673102333    0.346643658822428  0.0000
  O1     O1        0.411953564273933    0.754785712001421    0.355995810359077  0.0000
  O1     O1        0.876735751707941    0.106982287531661    0.595345368329630  0.0000
  O3     O3        0.627257147614693    0.880853830457572    0.595375341266791  0.0000
  O3     O3        0.905153454823835    0.749207142383305    0.607155233815287  0.0000
  O3     O3        0.577389631686306    0.200749774683812    0.606617447136532  0.0000
  O3     O3        0.128104926746874    0.860588392512900    0.341552298080189  0.0000
  O1     O1        0.372587154062453    0.096894197473188    0.359888672156357  0.0000
  O1     O1        0.025923032937117    0.973958975868432    0.535249910177444  0.0000
  O3     O3        0.526805118334116    0.994140358970695    0.427630700851993  0.0000
  O1     O1        0.970434058998148    0.952952477870329    0.290144816171579  0.0000
  O3     O3        0.474896679623124    0.978464131072713    0.172564046339578  0.0000
  O1     O1        0.970773139683047    0.966780133321623    0.787717312092496  0.0000
  O3     O3        0.483346055456626    0.953577026441199    0.667065891131369  0.0000
  O3     O3        0.577241550269851    0.208469565085524    0.104586243958863  0.0000
  O1     O1        0.914298373066676    0.755021753999617    0.086032780245146  0.0000
  O1     O1        0.372226825064298    0.093056229547579    0.842265092582310  0.0000
  O1     O1        0.123187587343035    0.873619726291340    0.854882660215629  0.0000
  O1     O1        0.423665337839854    0.749413691190371    0.858706984181239  0.0000
  O1     O1        0.081997035469766    0.217532695294052    0.845963124159843  0.0000
  O3     O3        0.613907607302898    0.878516108443760    0.101941539114853  0.0000
  O1     O1        0.865029151094961    0.098645935255687    0.111778033253725  0.0000
  O3     O3        0.521727619985714    0.015929113235502    0.928426344252964  0.0000
  O1     O1        0.019157359184496    0.015848065529061    0.040312862687556  0.0000
  O3     O3        0.153841559113543    0.527861363032584    0.313654268068978  0.0000
  O1     O1        0.341058208400899    0.439420926388218    0.326096021128039  0.0000
  O3     O3        0.837367747698077    0.453041475169949    0.633774228976260  0.0000
  O1     O1        0.648958646475094    0.521234325683254    0.625361059702552  0.0000
  O1     O1        0.228313511293288    0.212283925521118    0.261819714077290  0.0000
  O3     O3        0.261269023338254    0.745244068126474    0.258707108650324  0.0000
  O1     O1        0.729336595323506    0.213771423266291    0.690147487057475  0.0000
  O3     O3        0.764819822260064    0.744431166492420    0.692697574895531  0.0000
  O1     O1        0.111279941056195    0.338346653739662    0.097258343955914  0.0000
  O1     O1        0.382808114863418    0.625491834501110    0.105415459364075  0.0000
  O1     O1        0.857114644218382    0.223742908488890    0.852669331173933  0.0000
  O1     O1        0.633920342779688    0.736563994026726    0.847432157662454  0.0000
  O3     O3        0.872788394340047    0.622035345552506    0.842152166269466  0.0000
  O1     O1        0.610155990237404    0.349708349927827    0.850053604328472  0.0000
  O3     O3        0.142618940221972    0.728155722078477    0.106230148692855  0.0000
  O1     O1        0.357675761156203    0.225543739239478    0.101164761579436  0.0000
  O1     O1        0.648326110444114    0.528449742400285    0.072209636743831  0.0000
  O1     O1        0.835363786318806    0.448970007120643    0.068453203325408  0.0000
  O1     O1        0.342674011886098    0.443994403592972    0.883298792803721  0.0000
  O1     O1        0.159754660028397    0.528477145787170    0.878965257786529  0.0000
  O1     O1        0.725329995438143    0.216139611615039    0.005768336506300  0.0000
  O1     O1        0.760021429307705    0.763720018413529    0.014505036212169  0.0000
  O1     O1        0.230277409940955    0.211083308359566    0.941400116729476  0.0000
  O1     O1        0.270475162111579    0.762894485016965    0.937418733885899  0.0000
