data_c01104.vasp
_audit_creation_method             Generated by GULP
_audit_author_name                 Salvador R. G. Balestra
_symmetry_space_group_name_H-M     'P 1             '
_symmetry_Int_Tables_number        1

loop_
_symmetry_equiv_pos_site_id
_symmetry_equiv_pos_as_xyz
_cell_length_a                       17.6117
_cell_length_b                        7.8292
_cell_length_c                       10.2018
_cell_angle_alpha                   90.8303
_cell_angle_beta                    91.3934
_cell_angle_gamma                   91.4933

loop_
_atom_site_label
_atom_site_type_symbol
_atom_site_fract_x
_atom_site_fract_y
_atom_site_fract_z
_atom_site_charge
  Ge     Ge        0.052090000000021    0.000000000000000    0.372269999999958  0.0000
  Ge     Ge        0.449731745181577    0.060266836048989    0.351504572573992  0.0000
  Ge     Ge        0.940947000417708    0.044498776589950    0.618468727613027  0.0000
  Ge     Ge        0.550931203010693    0.996208636031059    0.094102658578100  0.0000
  Ge     Ge        0.441510930313104    0.043569973643381    0.838274854774052  0.0000
  Ge     Ge        0.046345649174289    0.981891753060485    0.876457920093807  0.0000
  Ge     Ge        0.173589791679543    0.284866990991548    0.267663826906367  0.0000
  Ge     Ge        0.326492259532458    0.775573751148381    0.263636809465976  0.0000
  Ge     Ge        0.840705003451619    0.356762680413233    0.688210686767742  0.0000
  Ge     Ge        0.638553750691973    0.689494208223704    0.713987796792077  0.0000
  Ge     Ge        0.821201684718610    0.756516119484852    0.695557541736214  0.0000
  Ge     Ge        0.146465222633163    0.686647668967984    0.257254564182035  0.0000
  Ge     Ge        0.352760236396648    0.369201863280252    0.270070776330787  0.0000
  Ge     Ge        0.675793571135682    0.285721177124176    0.024978859532018  0.0000
  Ge     Ge        0.831915260665382    0.759847697887216    0.012902336562714  0.0000
  Ge     Ge        0.144670060766342    0.667366951109875    0.937252087175127  0.0000
  Ge     Ge        0.325565497899313    0.750308959701631    0.947004859961586  0.0000
  Ge     Ge        0.171865792269439    0.269922091858096    0.950035779406067  0.0000
  Ge     Ge        0.649963892548830    0.685401325936060    0.029170776737777  0.0000
  Ge     Ge        0.855904220680031    0.355059223213110    0.008920731928568  0.0000
  Si     Si        0.548768324012769    0.003894375766300    0.602496083364999  0.0000
  Si     Si        0.948694535830061    0.049930570265515    0.123658358888058  0.0000
  Si     Si        0.663243737155740    0.294414138156164    0.711625286299401  0.0000
  Si     Si        0.349513062817504    0.351164713464653    0.958828636163516  0.0000
  O1     O1        0.126980908079946    0.141685693292908    0.364110182846360  0.0000
  O1     O1        0.375043636517408    0.916629227605056    0.366051204578810  0.0000
  O1     O1        0.900593974690914    0.239421289079633    0.595791156350391  0.0000
  O3     O3        0.574142399591748    0.811765703885812    0.628086212689577  0.0000
  O1     O1        0.868339229213181    0.895383541140621    0.596958132857125  0.0000
  O2     O2        0.615799127631509    0.141833879137270    0.637999573912640  0.0000
  O1     O1        0.079438192329023    0.796079423713457    0.340508981258082  0.0000
  O1     O1        0.418486358737114    0.265040110958857    0.363892201320683  0.0000
  O1     O1        0.019140260390908    0.007795929888167    0.529749512090572  0.0000
  O3     O3        0.527742073239909    0.019955727049019    0.449077266841746  0.0000
  O3     O3        0.975097545764803    0.056788154589964    0.275133809387034  0.0000
  O1     O1        0.477157872583013    0.035638273424190    0.190910963170180  0.0000
  O1     O1        0.971294378703060    0.035016611658921    0.781310520196133  0.0000
  O3     O3        0.472324126393643    0.047658182054004    0.677754553332850  0.0000
  O1     O1        0.625115370523874    0.144182892700368    0.113268381345077  0.0000
  O3     O3        0.877440065360504    0.919009233465170    0.105346381570704  0.0000
  O3     O3        0.408379564553539    0.244479635910385    0.876007115181686  0.0000
  O1     O1        0.078334908367470    0.778436561158569    0.850229386919666  0.0000
  O1     O1        0.372065861602659    0.886618985920667    0.845560804623397  0.0000
  O1     O1        0.124354966896286    0.116751405780303    0.858776040648317  0.0000
  O1     O1        0.589645380264022    0.800167897671747    0.122543370175413  0.0000
  O3     O3        0.926873762006596    0.240918235048693    0.083317299117846  0.0000
  O1     O1        0.519196587608719    0.000286893721096    0.933113191467565  0.0000
  O3     O3        0.019088470050073    0.987585159068227    0.039725246071634  0.0000
  O1     O1        0.160503325278356    0.490293980412277    0.324562922618920  0.0000
  O1     O1        0.341287623034983    0.572851391309797    0.323150651349274  0.0000
  O1     O1        0.832870350665358    0.556146241528907    0.627702331135437  0.0000
  O3     O3        0.645154571530149    0.480267601180464    0.653434730863544  0.0000
  O1     O1        0.269348983585040    0.250532705479743    0.274032034489775  0.0000
  O1     O1        0.230440780268729    0.806428780223583    0.260947314119412  0.0000
  O3     O3        0.751666686817495    0.256357221783645    0.696650791667738  0.0000
  O1     O1        0.725866483180948    0.789872968518055    0.703530431703930  0.0000
  O1     O1        0.140700579691857    0.261201255713627    0.108366349180811  0.0000
  O1     O1        0.358389016073091    0.787399533259737    0.105098829780742  0.0000
  O1     O1        0.875930066008660    0.374057129125115    0.846553881584610  0.0000
  O1     O1        0.611022428350365    0.676680480707613    0.871934578828064  0.0000
  O1     O1        0.859826864971211    0.769876284186612    0.852750992721943  0.0000
  O3     O3        0.642344702811780    0.294885209031888    0.863717605181320  0.0000
  O1     O1        0.117982858506264    0.650210091600175    0.097877942665836  0.0000
  O3     O3        0.380511689798848    0.375898506142716    0.107520050416326  0.0000
  O1     O1        0.663599473551232    0.487688098771166    0.090415892097560  0.0000
  O1     O1        0.850963337871523    0.559276378938703    0.071896564241972  0.0000
  O3     O3        0.338128603531312    0.537957658751519    0.899794446270988  0.0000
  O1     O1        0.153396804137420    0.463816896860493    0.879148117227116  0.0000
  O1     O1        0.770755379398289    0.246163807324105    0.027108925054588  0.0000
  O1     O1        0.736448590314012    0.791922194153023    0.017343753990014  0.0000
  O3     O3        0.269385105154536    0.245555141561780    0.957261126664480  0.0000
  O1     O1        0.229866051163063    0.781143181119252    0.937744446873402  0.0000
