data_c01156.vasp
_audit_creation_method             Generated by GULP
_audit_author_name                 Salvador R. G. Balestra
_symmetry_space_group_name_H-M     'P 1             '
_symmetry_Int_Tables_number        1

loop_
_symmetry_equiv_pos_site_id
_symmetry_equiv_pos_as_xyz
_cell_length_a                       17.4989
_cell_length_b                        7.8389
_cell_length_c                       10.4823
_cell_angle_alpha                   89.0310
_cell_angle_beta                    89.2574
_cell_angle_gamma                   90.7981

loop_
_atom_site_label
_atom_site_type_symbol
_atom_site_fract_x
_atom_site_fract_y
_atom_site_fract_z
_atom_site_charge
  Ge     Ge        0.052090000000021    0.000000000000000    0.372269999999958  0.0000
  Ge     Ge        0.450380721225082    0.038212950336408    0.348734438090523  0.0000
  Ge     Ge        0.951719915579167    0.015241587828464    0.629115082360741  0.0000
  Ge     Ge        0.943175314471537    0.014865060360527    0.127819612909176  0.0000
  Ge     Ge        0.442452797992779    0.050589716232772    0.849146012467660  0.0000
  Ge     Ge        0.056637832034670    0.041789787136156    0.885668644394407  0.0000
  Ge     Ge        0.173284479900953    0.288902684001871    0.246964066206399  0.0000
  Ge     Ge        0.331599755357511    0.757167805725184    0.268333004661472  0.0000
  Ge     Ge        0.826385816112977    0.291114913303395    0.704046930776968  0.0000
  Ge     Ge        0.665888238435376    0.753773463783646    0.704999945886594  0.0000
  Ge     Ge        0.847852717879857    0.697829847855355    0.697046214639260  0.0000
  Ge     Ge        0.643000888048363    0.347805845890451    0.706391750928956  0.0000
  Ge     Ge        0.145519788527288    0.689824216906895    0.268925429186974  0.0000
  Ge     Ge        0.354876180517513    0.355811194258818    0.254802271044712  0.0000
  Ge     Ge        0.639713304252169    0.348361707353596    0.014855342660425  0.0000
  Ge     Ge        0.850941077680872    0.695539768896416    0.010404742135506  0.0000
  Ge     Ge        0.353900894469739    0.379202126667607    0.943390963252861  0.0000
  Ge     Ge        0.173618036172368    0.337955169551253    0.936587590786992  0.0000
  Ge     Ge        0.667508999913407    0.750982658929007    0.017062675645509  0.0000
  Ge     Ge        0.823906031684755    0.290119176381784    0.012556354732875  0.0000
  Si     Si        0.547643644420062    0.037166310544219    0.603465345683393  0.0000
  Si     Si        0.548374205513377    0.025097948172371    0.093571049464938  0.0000
  Si     Si        0.151168129569218    0.724737130334409    0.970623024577414  0.0000
  Si     Si        0.331273761494408    0.772169489943707    0.969053749099926  0.0000
  O1     O1        0.129775994585463    0.121479971725146    0.325616480758379  0.0000
  O1     O1        0.373042473031493    0.901515437199057    0.366848419017834  0.0000
  O1     O1        0.879254181712525    0.159652815795060    0.610998489847971  0.0000
  O3     O3        0.615879051166517    0.905797733423662    0.623273661596182  0.0000
  O1     O1        0.912803165643668    0.815045413598407    0.607978367706315  0.0000
  O3     O3        0.578084277583921    0.229167883986837    0.621057909718163  0.0000
  O1     O1        0.081873973078618    0.791883484517492    0.364138084201771  0.0000
  O1     O1        0.418659053996639    0.242034529132716    0.343882451615844  0.0000
  O1     O1        0.026671422851136    0.049207451412792    0.526142074235180  0.0000
  O3     O3        0.519315339952913    0.011716731494411    0.460697785873456  0.0000
  O1     O1        0.971765440985846    0.028924116008963    0.283003747428302  0.0000
  O3     O3        0.488050812987843    0.977301450273047    0.202575125977143  0.0000
  O1     O1        0.982245285023189    0.029369011158331    0.783946866835351  0.0000
  O3     O3        0.476442142836553    0.001442282453567    0.699259925546984  0.0000
  O3     O3        0.576206493950430    0.221680340783204    0.104630868326181  0.0000
  O1     O1        0.919321959188010    0.808035763885456    0.089974007457962  0.0000
  O1     O1        0.416982755378401    0.260506153646431    0.855809055159519  0.0000
  O3     O3        0.107605941761999    0.852400699408516    0.878743108761233  0.0000
  O3     O3        0.361709228762710    0.921389071995709    0.875881123744616  0.0000
  O1     O1        0.118918510249737    0.205871868813130    0.846001486537108  0.0000
  O3     O3        0.620993777590105    0.902189711417984    0.104270803819834  0.0000
  O1     O1        0.865206097854950    0.141395537252641    0.108935002036469  0.0000
  O3     O3        0.512417478645893    0.994618088087819    0.954962396597080  0.0000
  O1     O1        0.019168095024304    0.083715145386487    0.034029471214259  0.0000
  O1     O1        0.124403898311391    0.475919123385611    0.268313941231679  0.0000
  O1     O1        0.377999035062905    0.566550940232997    0.271725740895520  0.0000
  O1     O1        0.837565139615951    0.495886558155398    0.642537305491007  0.0000
  O1     O1        0.651974406463745    0.551395838779877    0.645582046622140  0.0000
  O1     O1        0.263181255406622    0.315487764275186    0.308070733130469  0.0000
  O1     O1        0.238303121072596    0.720263025736631    0.314739698138092  0.0000
  O1     O1        0.729939229984529    0.247793019766474    0.704986698260585  0.0000
  O1     O1        0.761539751763034    0.801934619545819    0.695292264759199  0.0000
  O1     O1        0.181886058931993    0.249709355139355    0.087319979327231  0.0000
  O3     O3        0.335419970280981    0.837441256231789    0.112828405080777  0.0000
  O1     O1        0.858547001915073    0.278078440364796    0.858598968743125  0.0000
  O1     O1        0.638055064184026    0.746756438251132    0.861901302002389  0.0000
  O1     O1        0.877389870338450    0.686124973935912    0.852978815366539  0.0000
  O1     O1        0.607996385607542    0.354787707268744    0.860194647159296  0.0000
  O3     O3        0.133947221869716    0.776853201025537    0.115721714206239  0.0000
  O1     O1        0.359450049800799    0.299678258480513    0.096646556665514  0.0000
  O1     O1        0.648224355414234    0.547333121953415    0.077275638104187  0.0000
  O1     O1        0.841475370188916    0.491345780877046    0.070017029282719  0.0000
  O3     O3        0.376895448634098    0.596454941114568    0.948672898888742  0.0000
  O3     O3        0.125873364787826    0.530419681119007    0.947041276545580  0.0000
  O1     O1        0.727406024342402    0.253517515581735    0.009009625324478  0.0000
  O1     O1        0.763551806725183    0.793866584172424    0.022275239426174  0.0000
  O1     O1        0.265067034924881    0.354974293259785    0.877689967840914  0.0000
  O2     O2        0.242643162404420    0.722415262765527    0.943752386808630  0.0000
