data_c01123.vasp
_audit_creation_method             Generated by GULP
_audit_author_name                 Salvador R. G. Balestra
_symmetry_space_group_name_H-M     'P 1             '
_symmetry_Int_Tables_number        1

loop_
_symmetry_equiv_pos_site_id
_symmetry_equiv_pos_as_xyz
_cell_length_a                       17.4683
_cell_length_b                        7.8514
_cell_length_c                       10.2145
_cell_angle_alpha                   88.4980
_cell_angle_beta                    90.5445
_cell_angle_gamma                   91.8518

loop_
_atom_site_label
_atom_site_type_symbol
_atom_site_fract_x
_atom_site_fract_y
_atom_site_fract_z
_atom_site_charge
  Ge     Ge        0.052090000000021    0.000000000000000    0.372269999999958  0.0000
  Ge     Ge        0.455647893444632    0.054054027322898    0.422617811242351  0.0000
  Ge     Ge        0.944777548363193    0.071387183579749    0.616474527778318  0.0000
  Ge     Ge        0.563000879913883    0.012659529584408    0.172583808236111  0.0000
  Ge     Ge        0.457579369839428    0.083052523627768    0.917330125837855  0.0000
  Ge     Ge        0.058744036873375    0.015253032426256    0.864280055980803  0.0000
  Ge     Ge        0.177860872795615    0.287004006877209    0.302282078017506  0.0000
  Ge     Ge        0.332367524097674    0.771996475383635    0.307839740672880  0.0000
  Ge     Ge        0.858196380103589    0.391200476216241    0.728396222162459  0.0000
  Ge     Ge        0.671190951109176    0.323453096187715    0.738278396924611  0.0000
  Ge     Ge        0.149754571514114    0.687709665553683    0.303851519301340  0.0000
  Ge     Ge        0.360706314002622    0.369723359726570    0.303930854960188  0.0000
  Ge     Ge        0.681571990843470    0.305133019503762    0.053874156919374  0.0000
  Ge     Ge        0.839465759575656    0.782428753320019    0.045898845283547  0.0000
  Ge     Ge        0.360566824528950    0.391121480678148    0.985120795300833  0.0000
  Ge     Ge        0.151325355683799    0.701420401003947    0.986315203565596  0.0000
  Ge     Ge        0.333069440533672    0.791879755459236    0.990942798707313  0.0000
  Ge     Ge        0.179608154744216    0.299032993610789    0.983919895679185  0.0000
  Ge     Ge        0.657598971214642    0.708004323935125    0.052592073617666  0.0000
  Ge     Ge        0.865049457524052    0.380142093140645    0.043882331902665  0.0000
  Si     Si        0.560774901866614    0.024688132207833    0.673664122174754  0.0000
  Si     Si        0.959003495825840    0.070858799459960    0.113878145386594  0.0000
  Si     Si        0.654429425857534    0.711727163799392    0.743207004714207  0.0000
  Si     Si        0.833847530946778    0.779615386539201    0.736888536328813  0.0000
  O1     O1        0.127090370655396    0.142613794424674    0.398317422612976  0.0000
  O1     O1        0.378632675167614    0.916431611360932    0.405584941842611  0.0000
  O1     O1        0.916940863020864    0.276914364976678    0.632751567658237  0.0000
  O2     O2        0.603121824961845    0.844700771689994    0.660549394981160  0.0000
  O3     O3        0.866403701104693    0.937593813521068    0.651881144587375  0.0000
  O3     O3        0.621066365317271    0.179248029907382    0.641896047789204  0.0000
  O1     O1        0.084750289491944    0.797569319152376    0.391872478062846  0.0000
  O1     O1        0.427965081514739    0.258619439341666    0.390964387030204  0.0000
  O1     O1        0.971925032416384    0.039110049464626    0.458012481225932  0.0000
  O3     O3        0.485895756648609    0.035784166652698    0.585383501302247  0.0000
  O3     O3        0.029722628680020    0.028932076505321    0.205788363670072  0.0000
  O1     O1        0.532940475488582    0.003679310961465    0.331758585601450  0.0000
  O1     O1        0.025378478870804    0.026494099943909    0.705929190996415  0.0000
  O3     O3        0.535230340217690    0.039691279957413    0.824205338713010  0.0000
  O1     O1        0.639701999682223    0.153414488506971    0.154246979214643  0.0000
  O3     O3        0.890934776869014    0.928718620216950    0.135429085257376  0.0000
  O1     O1        0.424447536749417    0.285171571076507    0.893019353695247  0.0000
  O1     O1        0.085529248522545    0.809942846230837    0.894898747440508  0.0000
  O1     O1        0.382800100148718    0.938343407187963    0.896520921856889  0.0000
  O1     O1        0.135076826734447    0.155217539212975    0.883745294305382  0.0000
  O1     O1        0.589342001839156    0.810557790098832    0.134010281849907  0.0000
  O3     O3        0.927135420280603    0.258003144875703    0.137422486784725  0.0000
  O1     O1        0.486804778916592    0.074386616377675    0.078923070485633  0.0000
  O3     O3        0.983760624009858    0.068839519816507    0.962274385790213  0.0000
  O1     O1        0.162458632231118    0.486280021593015    0.363960642099502  0.0000
  O1     O1        0.347475151129236    0.567630418940681    0.365935174517914  0.0000
  O3     O3        0.854870293516186    0.602408537526245    0.672769549616916  0.0000
  O3     O3        0.651407086233462    0.528604524420321    0.678986991653949  0.0000
  O1     O1        0.274601119429851    0.255050472479004    0.306667491023700  0.0000
  O1     O1        0.235625395546196    0.802910533137171    0.304996918771240  0.0000
  O1     O1        0.767638510781041    0.298826977049807    0.726562015275167  0.0000
  O2     O2        0.741921271717438    0.785932999087688    0.751028944631632  0.0000
  O1     O1        0.146895783791609    0.279063380220844    0.141807754777550  0.0000
  O1     O1        0.366117481254960    0.798799376375551    0.150451371254656  0.0000
  O1     O1        0.894992723692207    0.393804279350978    0.884013440893139  0.0000
  O3     O3        0.626332364461926    0.689769600038420    0.891405200538537  0.0000
  O3     O3        0.868201598703930    0.789426069195796    0.883259839467349  0.0000
  O1     O1        0.643135934809577    0.295796240672114    0.898012962192245  0.0000
  O1     O1        0.119194588746477    0.674282259094304    0.143900119027603  0.0000
  O1     O1        0.390842427066799    0.402123452510222    0.145820595642400  0.0000
  O1     O1        0.668635888836737    0.505445537094261    0.113834958838531  0.0000
  O1     O1        0.857512866312901    0.579122702529309    0.104979405460440  0.0000
  O1     O1        0.347162423247439    0.593052549725209    0.927547566611386  0.0000
  O1     O1        0.164775356385805    0.504079165031463    0.925087589466290  0.0000
  O1     O1        0.777580670328901    0.274054969676691    0.042020806005251  0.0000
  O1     O1        0.744090394012065    0.819106490367852    0.060326197965822  0.0000
  O1     O1        0.276330534122092    0.270230948786393    0.986311348894134  0.0000
  O1     O1        0.236247704567278    0.820503890586920    0.989195027700687  0.0000
