data_c01163.vasp
_audit_creation_method             Generated by GULP
_audit_author_name                 Salvador R. G. Balestra
_symmetry_space_group_name_H-M     'P 1             '
_symmetry_Int_Tables_number        1

loop_
_symmetry_equiv_pos_site_id
_symmetry_equiv_pos_as_xyz
_cell_length_a                       17.5750
_cell_length_b                        7.8147
_cell_length_c                       10.2066
_cell_angle_alpha                   88.7010
_cell_angle_beta                    90.0940
_cell_angle_gamma                   91.1245

loop_
_atom_site_label
_atom_site_type_symbol
_atom_site_fract_x
_atom_site_fract_y
_atom_site_fract_z
_atom_site_charge
  Ge     Ge        0.052090000000021    0.000000000000000    0.372269999999958  0.0000
  Ge     Ge        0.445810838401025    0.052366232543160    0.366754382205707  0.0000
  Ge     Ge        0.945305152504719    0.063850725645610    0.620241652410501  0.0000
  Ge     Ge        0.940655637372193    0.051388519550267    0.127375470173333  0.0000
  Ge     Ge        0.454845530866456    0.070033955002986    0.873409578070949  0.0000
  Ge     Ge        0.047747396299656    0.006283327705108    0.876774166634520  0.0000
  Ge     Ge        0.174636573416412    0.285725678409306    0.258243218069871  0.0000
  Ge     Ge        0.327477351343964    0.760536367164204    0.263041143880002  0.0000
  Ge     Ge        0.845176068241981    0.372900584377646    0.691406893121193  0.0000
  Ge     Ge        0.641150595715735    0.701708454819390    0.697366107946640  0.0000
  Ge     Ge        0.822721287526382    0.778300980814927    0.698296563038989  0.0000
  Ge     Ge        0.665060821985768    0.296305161504738    0.694747480016288  0.0000
  Ge     Ge        0.145373767587082    0.685631513000476    0.260586258079242  0.0000
  Ge     Ge        0.668410168522493    0.286443613737527    0.013590291704698  0.0000
  Ge     Ge        0.824778761687621    0.758323559384915    0.013319171861874  0.0000
  Ge     Ge        0.352444803936260    0.377783856971983    0.939536057546513  0.0000
  Ge     Ge        0.149895566785836    0.694565039627296    0.940040185902091  0.0000
  Ge     Ge        0.329026776893401    0.783300684846381    0.946727033587600  0.0000
  Ge     Ge        0.174266102955168    0.290825506218529    0.939706834431339  0.0000
  Ge     Ge        0.641613790020697    0.688781204020979    0.013904666362315  0.0000
  Si     Si        0.549917102998384    0.015229620488448    0.615979868289940  0.0000
  Si     Si        0.554773489543325    0.999149734607474    0.127889399349167  0.0000
  Si     Si        0.351868245043421    0.364724660164784    0.252460772610592  0.0000
  Si     Si        0.846567427536034    0.360693487112438    0.003888709203209  0.0000
  O1     O1        0.131853684558948    0.126136444853193    0.349187940812064  0.0000
  O1     O1        0.375848755760384    0.898807160019012    0.362401036440249  0.0000
  O1     O1        0.910608064239368    0.267064114171407    0.601247151896968  0.0000
  O3     O3        0.580963871706190    0.824917786850037    0.600281294197270  0.0000
  O1     O1        0.871712031451722    0.918910069687982    0.597978380637387  0.0000
  O3     O3        0.616728964149817    0.156771706903573    0.593828775567006  0.0000
  O1     O1        0.076305343491167    0.793104177419078    0.341913019046910  0.0000
  O3     O3        0.413922015291898    0.255142235879722    0.330710352292420  0.0000
  O1     O1        0.024513175826092    0.020316037002073    0.533413323236338  0.0000
  O3     O3        0.477353585639241    0.053374443371668    0.528220419594029  0.0000
  O1     O1        0.972729067429528    0.062290749920170    0.286372616608567  0.0000
  O3     O3        0.525145457992369    0.006124060018490    0.275774122945621  0.0000
  O1     O1        0.970281546170375    0.046585140743108    0.784200423965264  0.0000
  O3     O3        0.527874070747919    0.031293013975738    0.769722103292878  0.0000
  O3     O3        0.628560478484596    0.122597347164976    0.107196334924383  0.0000
  O1     O1        0.871527345694592    0.894227752537580    0.116037243561397  0.0000
  O1     O1        0.420702658306860    0.274002389728191    0.855326112340588  0.0000
  O1     O1        0.084729523075582    0.807147440755009    0.851076066975196  0.0000
  O1     O1        0.380793177228618    0.926498442736587    0.853485494976413  0.0000
  O1     O1        0.120069656181095    0.155317237731886    0.848988401918242  0.0000
  O3     O3        0.576693984316606    0.804550203429161    0.100081981405622  0.0000
  O3     O3        0.908049282270078    0.252357965863033    0.083356573014730  0.0000
  O3     O3        0.486762108761964    0.059853593903538    0.034054302542105  0.0000
  O1     O1        0.019909907658714    0.005860306793574    0.038949598334401  0.0000
  O1     O1        0.154181977186546    0.480618684511439    0.322784510948624  0.0000
  O3     O3        0.340862766322007    0.549265119069368    0.315200630834440  0.0000
  O1     O1        0.834479808514057    0.577033877212666    0.635188210774844  0.0000
  O1     O1        0.651388885402008    0.502690741064438    0.635461806556963  0.0000
  O3     O3        0.272292786596761    0.258323321845217    0.255863878661545  0.0000
  O1     O1        0.231528242239379    0.794144614875174    0.270193615711363  0.0000
  O1     O1        0.760586363243287    0.258075843178537    0.688104733549935  0.0000
  O1     O1        0.726967095375484    0.812216488816710    0.703953560200179  0.0000
  O1     O1        0.143090440193315    0.273954799551553    0.099504476033718  0.0000
  O1     O1        0.360038418749941    0.796535587293946    0.106583447792079  0.0000
  O3     O3        0.873269716792773    0.387119916067622    0.854297370120808  0.0000
  O1     O1        0.609091522360502    0.675737185554395    0.855515821971425  0.0000
  O1     O1        0.857673119994099    0.790417434345118    0.856345444355094  0.0000
  O1     O1        0.635209458934753    0.280730231818372    0.855430877287203  0.0000
  O1     O1        0.120079785296154    0.665555486206684    0.099650140498686  0.0000
  O3     O3        0.377553438349651    0.397401088829124    0.103392594443352  0.0000
  O1     O1        0.648605996381836    0.483311121339040    0.075957307357505  0.0000
  O3     O3        0.837799151709703    0.546769882626260    0.064965726107989  0.0000
  O1     O1        0.341129954276034    0.581932521523012    0.883340012036126  0.0000
  O1     O1        0.164177639228747    0.497507673728106    0.878304287075427  0.0000
  O3     O3        0.765826240249387    0.258743669188443    0.008631226511698  0.0000
  O1     O1        0.728751121232045    0.791291273164247    0.015647670527675  0.0000
  O1     O1        0.270111851501817    0.254553457037633    0.932767708276788  0.0000
  O1     O1        0.233077698592314    0.816780516926885    0.944512224493109  0.0000
