data_c01111.vasp
_audit_creation_method             Generated by GULP
_audit_author_name                 Salvador R. G. Balestra
_symmetry_space_group_name_H-M     'P 1             '
_symmetry_Int_Tables_number        1

loop_
_symmetry_equiv_pos_site_id
_symmetry_equiv_pos_as_xyz
_cell_length_a                       17.7009
_cell_length_b                        7.7989
_cell_length_c                       10.0426
_cell_angle_alpha                   88.5031
_cell_angle_beta                    90.3207
_cell_angle_gamma                   89.2690

loop_
_atom_site_label
_atom_site_type_symbol
_atom_site_fract_x
_atom_site_fract_y
_atom_site_fract_z
_atom_site_charge
  Ge     Ge        0.052090000000021    0.000000000000000    0.372269999999958  0.0000
  Ge     Ge        0.454163406546955    0.959581200500782    0.390160725462890  0.0000
  Ge     Ge        0.949147673652700    0.985938057794499    0.628976598727647  0.0000
  Ge     Ge        0.559320881456173    0.009019500740552    0.133299026780813  0.0000
  Ge     Ge        0.456138929217060    0.971471499387951    0.871973058157762  0.0000
  Ge     Ge        0.069776733883687    0.026946333454442    0.859524338681707  0.0000
  Ge     Ge        0.151801734447171    0.319166333359771    0.302490306191102  0.0000
  Ge     Ge        0.357418221500767    0.646068173808029    0.313683534860233  0.0000
  Ge     Ge        0.836950123476564    0.285775143475706    0.723428957614525  0.0000
  Ge     Ge        0.679063360422008    0.750331995916377    0.739789686480880  0.0000
  Ge     Ge        0.652362857123720    0.345371114926427    0.734508408555095  0.0000
  Ge     Ge        0.178374449010064    0.727220312736490    0.300561814644617  0.0000
  Ge     Ge        0.329984281898223    0.240623257253314    0.313937765987302  0.0000
  Ge     Ge        0.664612930364315    0.314056094083448    0.055612413605759  0.0000
  Ge     Ge        0.856278563764342    0.643722730666962    0.063595500914516  0.0000
  Ge     Ge        0.334987250185110    0.248412351394605    0.990186209916768  0.0000
  Ge     Ge        0.184510772490405    0.730066381498678    0.978593560860666  0.0000
  Ge     Ge        0.364374592578862    0.651569809877049    0.988851183546945  0.0000
  Ge     Ge        0.684257891120486    0.723371191185691    0.071747200756384  0.0000
  Ge     Ge        0.844927089337235    0.242566567801984    0.041425482411924  0.0000
  Si     Si        0.560851921097160    0.038548230100458    0.625640861928563  0.0000
  Si     Si        0.962680070319303    0.949930320592047    0.103485659915899  0.0000
  Si     Si        0.850583305924332    0.674247380612050    0.738867603676346  0.0000
  Si     Si        0.159533987946771    0.330327503885658    0.985880829228665  0.0000
  O1     O1        0.083400781767582    0.207107035361195    0.385340180277623  0.0000
  O1     O1        0.420489648300419    0.755737112066034    0.409925980704614  0.0000
  O1     O1        0.881781244623873    0.143258641117391    0.621770859332165  0.0000
  O3     O3        0.632505388060288    0.919835692377275    0.663106537917420  0.0000
  O3     O3        0.920196092541616    0.794303611962364    0.704322812655644  0.0000
  O3     O3        0.585527878323532    0.233445958792617    0.645595695250880  0.0000
  O1     O1        0.127498309565059    0.861453397674902    0.398211863077661  0.0000
  O1     O1        0.381135497381526    0.101568289432462    0.414595422892421  0.0000
  O1     O1        0.975701588926069    0.952059003962683    0.466121212937807  0.0000
  O3     O3        0.536257994007562    0.007254677303692    0.473940542751743  0.0000
  O3     O3        0.030118657736526    0.976952833740135    0.204243002248360  0.0000
  O1     O1        0.480307464565354    0.981383762903765    0.224482366186048  0.0000
  O1     O1        0.033654447476511    0.040662731905561    0.700912033242065  0.0000
  O3     O3        0.485835979385348    0.989050720326290    0.707889684105643  0.0000
  O1     O1        0.606353755856168    0.197451451426300    0.156709212868328  0.0000
  O3     O3        0.933549235287630    0.754022726554335    0.115536805169829  0.0000
  O1     O1        0.377398681073412    0.097913159274173    0.894895177009473  0.0000
  O1     O1        0.139116995792857    0.872257472156198    0.871750117105471  0.0000
  O1     O1        0.432485228649790    0.761284795270448    0.903472856132294  0.0000
  O3     O3        0.100807578984693    0.229399339310466    0.896713515649140  0.0000
  O1     O1        0.623097843185942    0.842827742427571    0.161649444213046  0.0000
  O3     O3        0.893781362311622    0.081924415697577    0.128507523620794  0.0000
  O1     O1        0.531011896733506    0.025413033703423    0.968208947874781  0.0000
  O3     O3        0.991620950387581    0.974914043397423    0.953368795997300  0.0000
  O1     O1        0.163668129758750    0.519995065520896    0.360085114287687  0.0000
  O1     O1        0.342189220193479    0.444048086544404    0.374441496680204  0.0000
  O3     O3        0.854682681324854    0.494139736544079    0.664514000409143  0.0000
  O1     O1        0.653031441945120    0.556035114606116    0.679006040951295  0.0000
  O1     O1        0.235077128715648    0.201420656428961    0.315207885415558  0.0000
  O1     O1        0.273811510831532    0.762906658124212    0.307145995085811  0.0000
  O1     O1        0.741237893884082    0.256695851163834    0.720996862463344  0.0000
  O3     O3        0.773991340767185    0.780146289910021    0.704263037658211  0.0000
  O3     O3        0.128309643151482    0.344748902989886    0.134856152938181  0.0000
  O1     O1        0.390459360462196    0.631112500031328    0.153652925479714  0.0000
  O1     O1        0.874549527787897    0.239915732614045    0.878375815080465  0.0000
  O1     O1        0.660699771160724    0.758682860400835    0.906369599401279  0.0000
  O3     O3        0.844362398415285    0.611794026561668    0.893230302851194  0.0000
  O1     O1        0.626684858926796    0.344464494150401    0.898309675866618  0.0000
  O1     O1        0.150507085202349    0.752042776883434    0.136124722499864  0.0000
  O1     O1        0.363783845128677    0.229898802612013    0.153478594917279  0.0000
  O1     O1        0.678540602130444    0.510429840692666    0.120086269801839  0.0000
  O1     O1        0.861373586092044    0.434541343974041    0.118877645603565  0.0000
  O1     O1        0.356268659279803    0.449367030308676    0.928009820670343  0.0000
  O3     O3        0.172566374455790    0.520311188755419    0.926397797327845  0.0000
  O1     O1        0.749650211415609    0.204898490034052    0.041325569041502  0.0000
  O1     O1        0.777809294288404    0.762751003393027    0.103192284629482  0.0000
  O3     O3        0.237963857352162    0.222447260155806    0.989651334532919  0.0000
  O1     O1        0.279951788483918    0.763440512429394    0.977343022454109  0.0000
