data_c01134.vasp
_audit_creation_method             Generated by GULP
_audit_author_name                 Salvador R. G. Balestra
_symmetry_space_group_name_H-M     'P 1             '
_symmetry_Int_Tables_number        1

loop_
_symmetry_equiv_pos_site_id
_symmetry_equiv_pos_as_xyz
_cell_length_a                       17.4779
_cell_length_b                        7.8350
_cell_length_c                       10.2701
_cell_angle_alpha                   89.9580
_cell_angle_beta                    92.0268
_cell_angle_gamma                   87.9909

loop_
_atom_site_label
_atom_site_type_symbol
_atom_site_fract_x
_atom_site_fract_y
_atom_site_fract_z
_atom_site_charge
  Ge     Ge        0.052090000000021    0.000000000000000    0.372269999999958  0.0000
  Ge     Ge        0.443579789550102    0.948391787466732    0.369691820294446  0.0000
  Ge     Ge        0.941023105521554    0.949610789005859    0.616755877024059  0.0000
  Ge     Ge        0.552131678548785    0.004703992265223    0.129363449734484  0.0000
  Ge     Ge        0.442438734775437    0.942157628867149    0.872944276539403  0.0000
  Ge     Ge        0.144243418356378    0.313977175105538    0.261067208600710  0.0000
  Ge     Ge        0.354587052883399    0.627616947400887    0.254150326263946  0.0000
  Ge     Ge        0.818998173039969    0.237425097265578    0.692867385746767  0.0000
  Ge     Ge        0.660023522591803    0.719157320216935    0.699948847430078  0.0000
  Ge     Ge        0.843011166047640    0.639342218465875    0.692154544650845  0.0000
  Ge     Ge        0.636591175593518    0.316347919985004    0.696239630741468  0.0000
  Ge     Ge        0.171443412946975    0.710732558484020    0.264885607622789  0.0000
  Ge     Ge        0.643697743570135    0.316141827061389    0.013322014550492  0.0000
  Ge     Ge        0.854290444188658    0.633604666046663    0.007289168382021  0.0000
  Ge     Ge        0.317187586507361    0.232652988430236    0.943687892528331  0.0000
  Ge     Ge        0.159247736171493    0.715263699131607    0.949217175024457  0.0000
  Ge     Ge        0.342345210929587    0.635167629366250    0.939172935564644  0.0000
  Ge     Ge        0.135365084629639    0.312871385069317    0.944671675047867  0.0000
  Ge     Ge        0.671009132034334    0.716999354496327    0.015373165787836  0.0000
  Ge     Ge        0.826959277949370    0.231485252973106    0.010136151505094  0.0000
  Si     Si        0.540459057598316    0.007216181436272    0.625905972114439  0.0000
  Si     Si        0.944340989317747    0.941819703605919    0.122027534211682  0.0000
  Si     Si        0.038345750858937    0.005657958958753    0.876940272805063  0.0000
  Si     Si        0.324187049597157    0.234493677803488    0.252502977288817  0.0000
  O1     O1        0.081703264159706    0.203066368477449    0.349649743536409  0.0000
  O1     O1        0.419980473037091    0.739941224617278    0.344556744949466  0.0000
  O1     O1        0.867569561915706    0.099335220175913    0.594077245876945  0.0000
  O3     O3        0.608714894108567    0.867463087991369    0.604039581646362  0.0000
  O1     O1        0.904078375071145    0.751061945818301    0.599359118955052  0.0000
  O3     O3        0.570708092305618    0.196733503243606    0.608567082446013  0.0000
  O1     O1        0.129438293335955    0.863266162026394    0.359898972742492  0.0000
  O3     O3        0.365769952187545    0.084842770686270    0.336365570103677  0.0000
  O1     O1        0.018148592111969    0.983838754885331    0.526551474328579  0.0000
  O3     O3        0.467307204837611    0.973165809691803    0.534187376588334  0.0000
  O3     O3        0.975714882129681    0.949050975930641    0.269744511674241  0.0000
  O1     O1        0.522492761054385    0.999038429569299    0.286756808730467  0.0000
  O3     O3        0.968228401915635    0.968550888493309    0.781291947235874  0.0000
  O3     O3        0.516906624211100    0.985411829725734    0.776097114003094  0.0000
  O1     O1        0.577437933968986    0.209812450266205    0.096908085916112  0.0000
  O3     O3        0.921499171602337    0.748394408796188    0.094064649066356  0.0000
  O1     O1        0.368267708829014    0.091730750018149    0.853297905072295  0.0000
  O3     O3        0.107368988969702    0.867092075339905    0.858494461874676  0.0000
  O1     O1        0.403712915926272    0.745838077339333    0.846938858114739  0.0000
  O3     O3        0.068936523838282    0.194996682585893    0.857354648480298  0.0000
  O1     O1        0.630400141286618    0.868970106875873    0.111959840619928  0.0000
  O3     O3        0.872004295608056    0.072272678928930    0.103431963201382  0.0000
  O1     O1        0.476422182823143    0.943898575710046    0.031999936518251  0.0000
  O2     O2        0.011685656395279    0.995990908776810    0.027228977874830  0.0000
  O1     O1        0.154471856982402    0.511755577199796    0.327150694353131  0.0000
  O3     O3        0.344322672461073    0.420374509272734    0.309844569660473  0.0000
  O1     O1        0.828886723961509    0.440407244115407    0.631388000438141  0.0000
  O1     O1        0.643961586207635    0.518336936034589    0.636236162207575  0.0000
  O3     O3        0.233433395580018    0.209612544014541    0.253543574429514  0.0000
  O1     O1        0.267882911961647    0.736401745744788    0.262249513430567  0.0000
  O1     O1        0.722701022845250    0.203116344592364    0.693923494894154  0.0000
  O1     O1        0.756407464026779    0.752319723954204    0.697591941616231  0.0000
  O1     O1        0.109565876193840    0.334092859235231    0.103582497312612  0.0000
  O1     O1        0.381003197558859    0.620570141362053    0.095837711435859  0.0000
  O1     O1        0.854073732559189    0.222821235570942    0.851542000915794  0.0000
  O1     O1        0.632167949371573    0.730440821168077    0.858879295467770  0.0000
  O1     O1        0.880479964085024    0.615621237148126    0.848620217178072  0.0000
  O1     O1        0.610383070271281    0.338893912632261    0.854617410333736  0.0000
  O1     O1        0.133218980829847    0.724015888210818    0.108642169562960  0.0000
  O3     O3        0.351974714035776    0.224559651494407    0.104591475140269  0.0000
  O1     O1        0.656269457908508    0.516029440280981    0.076218421716957  0.0000
  O1     O1        0.847312820901625    0.431809421558087    0.069938717696828  0.0000
  O1     O1        0.328581751277639    0.434720778597710    0.881686155089847  0.0000
  O1     O1        0.142332380594680    0.515063504119093    0.884829736643681  0.0000
  O1     O1        0.730230431306117    0.204070910042922    0.015444175436998  0.0000
  O1     O1        0.767644447968727    0.743090491230973    0.009215244880129  0.0000
  O1     O1        0.221214639231545    0.198640519636075    0.939262002904184  0.0000
  O1     O1        0.255574532308775    0.747131728644950    0.944137793659498  0.0000
