data_c01167.vasp
_audit_creation_method             Generated by GULP
_audit_author_name                 Salvador R. G. Balestra
_symmetry_space_group_name_H-M     'P 1             '
_symmetry_Int_Tables_number        1

loop_
_symmetry_equiv_pos_site_id
_symmetry_equiv_pos_as_xyz
_cell_length_a                       17.5851
_cell_length_b                        7.8162
_cell_length_c                       10.2129
_cell_angle_alpha                   88.9579
_cell_angle_beta                    90.2646
_cell_angle_gamma                   91.1602

loop_
_atom_site_label
_atom_site_type_symbol
_atom_site_fract_x
_atom_site_fract_y
_atom_site_fract_z
_atom_site_charge
  Ge     Ge        0.052090000000021    0.000000000000000    0.372269999999958  0.0000
  Ge     Ge        0.448105358533272    0.057977928057412    0.370340358892382  0.0000
  Ge     Ge        0.945695034335750    0.058714934905270    0.621712332728056  0.0000
  Ge     Ge        0.948499214308474    0.059259572918657    0.116225501125803  0.0000
  Ge     Ge        0.447344462808307    0.067822101878293    0.867391349573725  0.0000
  Ge     Ge        0.056004506639790    0.009446614760258    0.867719217381910  0.0000
  Ge     Ge        0.174590211060160    0.284949890170239    0.294744514427425  0.0000
  Ge     Ge        0.329136860974189    0.766748571797066    0.299102233173957  0.0000
  Ge     Ge        0.850106041627199    0.371065626165759    0.735663108452420  0.0000
  Ge     Ge        0.640028701272936    0.699042674994583    0.733483669087962  0.0000
  Ge     Ge        0.822687743793157    0.772889687118967    0.731774212228468  0.0000
  Ge     Ge        0.668060414657699    0.297061582754451    0.730129296875896  0.0000
  Ge     Ge        0.149728019329594    0.686627451109164    0.304892238756349  0.0000
  Ge     Ge        0.664903620685021    0.289629094614366    0.048763098003739  0.0000
  Ge     Ge        0.823415447359729    0.772521125033967    0.048370584304585  0.0000
  Ge     Ge        0.354354297019042    0.379823775496991    0.980880035543251  0.0000
  Ge     Ge        0.326393559110032    0.782938334579152    0.981364166599158  0.0000
  Ge     Ge        0.173399135065353    0.302684389906467    0.978322971558083  0.0000
  Ge     Ge        0.642852321356567    0.693188938379192    0.050512455607788  0.0000
  Ge     Ge        0.844909024717885    0.369325383431750    0.056507558858562  0.0000
  Si     Si        0.551177836434402    0.014750824423525    0.620659841587101  0.0000
  Si     Si        0.547366899567510    0.998419217854608    0.118978942028800  0.0000
  Si     Si        0.351258999765186    0.369284913336347    0.292211468284467  0.0000
  Si     Si        0.149392857938420    0.700438900010153    0.991225527180086  0.0000
  O1     O1        0.129017639822043    0.137500968848872    0.392546327440858  0.0000
  O1     O1        0.380723966987573    0.900144864329389    0.398259298010070  0.0000
  O1     O1        0.919639610605807    0.263146431239569    0.656709724845532  0.0000
  O3     O3        0.573393437457796    0.819525363448072    0.650053588047247  0.0000
  O1     O1        0.868059723871480    0.925486074126653    0.637651567065871  0.0000
  O3     O3        0.623320698690093    0.139051458004797    0.641458272503838  0.0000
  O1     O1        0.083300605272461    0.794175832818024    0.391470867391926  0.0000
  O3     O3        0.409884699068616    0.259713596636758    0.378587431310321  0.0000
  O1     O1        0.974673228684726    0.050028371128450    0.460502980627267  0.0000
  O3     O3        0.525493196025330    0.035281742516883    0.470190864720234  0.0000
  O1     O1        0.026081422823909    0.020008974574980    0.208990706690238  0.0000
  O3     O3        0.476584613750907    0.033505537601190    0.209246489189843  0.0000
  O1     O1        0.024725771366066    0.996309503797915    0.708348358293263  0.0000
  O3     O3        0.479376127145143    0.066700638733629    0.707877754031698  0.0000
  O3     O3        0.613096987696358    0.141991756317418    0.140297918354247  0.0000
  O1     O1        0.875968239383575    0.910321115197850    0.140675316816372  0.0000
  O1     O1        0.423456378958694    0.274452251436987    0.900421491378941  0.0000
  O3     O3        0.086309915358459    0.807643989012814    0.914735176334572  0.0000
  O1     O1        0.368079607502174    0.937597309304978    0.884272811676297  0.0000
  O1     O1        0.125758728638553    0.165618839079215    0.877119178379965  0.0000
  O3     O3        0.581271203077522    0.810828516548099    0.143718529966906  0.0000
  O1     O1        0.910446949962331    0.256797976181764    0.144187920984898  0.0000
  O3     O3        0.520561057840890    0.001359960396825    0.967164191823638  0.0000
  O1     O1        0.977090315708851    0.060631420800597    0.954735545605906  0.0000
  O1     O1        0.157030791816430    0.481660356481655    0.360846285819850  0.0000
  O3     O3        0.339226005814669    0.554401397738691    0.351639172527167  0.0000
  O1     O1        0.839463398657395    0.573282369014559    0.670702034243960  0.0000
  O1     O1        0.649927878464203    0.499165596090754    0.668424815601751  0.0000
  O3     O3        0.272055032594414    0.260368711539640    0.287872308980207  0.0000
  O1     O1        0.233781578628384    0.802762678984009    0.312207387006581  0.0000
  O1     O1        0.763871826780605    0.262336921027818    0.726469439862092  0.0000
  O1     O1        0.726520201534850    0.804745604486027    0.731698645639123  0.0000
  O1     O1        0.142012387359418    0.269337216815009    0.135785748889639  0.0000
  O1     O1        0.357988746368054    0.798720606103583    0.140089400591238  0.0000
  O1     O1        0.874284327997888    0.394812729675013    0.896649923848069  0.0000
  O1     O1        0.611162696087347    0.669444624536493    0.892297756350693  0.0000
  O1     O1        0.856279940365376    0.786980429483108    0.889771526622850  0.0000
  O1     O1        0.635399837711815    0.284528795790728    0.888245245499961  0.0000
  O3     O3        0.124393702687431    0.670103346492592    0.140847879485122  0.0000
  O3     O3        0.380465883072039    0.396037711588445    0.144376296060707  0.0000
  O1     O1        0.652488484233927    0.490670950878753    0.112832996524506  0.0000
  O1     O1        0.832798561740539    0.569067056646297    0.115310234600569  0.0000
  O1     O1        0.346687868486489    0.584858656500740    0.921493746810218  0.0000
  O3     O3        0.159723560387593    0.514876738817989    0.929196153364576  0.0000
  O1     O1        0.760405149916325    0.252150199373754    0.054739715777875  0.0000
  O1     O1        0.727531263425336    0.807896061619810    0.045697252877003  0.0000
  O1     O1        0.269311234018359    0.269412829541236    0.968832095483458  0.0000
  O3     O3        0.228658893439401    0.807793809940290    0.984761815225068  0.0000
