data_c01198.vasp
_audit_creation_method             Generated by GULP
_audit_author_name                 Salvador R. G. Balestra
_symmetry_space_group_name_H-M     'P 1             '
_symmetry_Int_Tables_number        1

loop_
_symmetry_equiv_pos_site_id
_symmetry_equiv_pos_as_xyz
_cell_length_a                       17.5559
_cell_length_b                        7.8313
_cell_length_c                       10.1478
_cell_angle_alpha                   89.0747
_cell_angle_beta                    90.3069
_cell_angle_gamma                   88.3694

loop_
_atom_site_label
_atom_site_type_symbol
_atom_site_fract_x
_atom_site_fract_y
_atom_site_fract_z
_atom_site_charge
  Ge     Ge        0.052090000000021    0.000000000000000    0.372269999999958  0.0000
  Ge     Ge        0.444769052451474    0.955317741890322    0.359456406328452  0.0000
  Ge     Ge        0.939971755383189    0.961963729527857    0.619810887482700  0.0000
  Ge     Ge        0.942825671439470    0.957518264422065    0.122320961899688  0.0000
  Ge     Ge        0.451168182523561    0.958741888980587    0.861566500984172  0.0000
  Ge     Ge        0.046104644823532    0.023216709863942    0.870463197070943  0.0000
  Ge     Ge        0.146453322202878    0.316759390883862    0.252202919785425  0.0000
  Ge     Ge        0.356157980566917    0.634227273467657    0.251249293549876  0.0000
  Ge     Ge        0.822233308438666    0.259082752724276    0.687078172747784  0.0000
  Ge     Ge        0.662621591038068    0.730973517217286    0.684245664392016  0.0000
  Ge     Ge        0.639411957033571    0.330860576738127    0.681862635320925  0.0000
  Ge     Ge        0.173022267639437    0.715448291976937    0.257901148323889  0.0000
  Ge     Ge        0.639151619895020    0.327459262793969    0.000537415886010  0.0000
  Ge     Ge        0.847718311105361    0.650548394045780    0.999181253345226  0.0000
  Ge     Ge        0.325039775942901    0.244816342932278    0.935239397892412  0.0000
  Ge     Ge        0.171815906208866    0.733581426871627    0.939459398388881  0.0000
  Ge     Ge        0.352577598478344    0.647821896381357    0.934062450319479  0.0000
  Ge     Ge        0.146153491344729    0.331737348316380    0.929574864481304  0.0000
  Ge     Ge        0.666388308859494    0.730281934225581    0.005554087005103  0.0000
  Ge     Ge        0.822145434164354    0.247347215732595    0.004808451887563  0.0000
  Si     Si        0.548178879361770    0.021262562989915    0.606317851899334  0.0000
  Si     Si        0.551041027819556    0.015216089158687    0.116599762567962  0.0000
  Si     Si        0.840504893763192    0.653904201650496    0.684387552592780  0.0000
  Si     Si        0.325597553446712    0.240952814037204    0.248971123050831  0.0000
  O1     O1        0.080684314379261    0.203506600974832    0.337256256647035  0.0000
  O1     O1        0.418784199459387    0.747900772583493    0.344203227261404  0.0000
  O1     O1        0.873189460407038    0.123083042320671    0.588623909427021  0.0000
  O3     O3        0.616330313663027    0.882019909260110    0.584830262213068  0.0000
  O3     O3        0.899118971460954    0.764478508988075    0.600433247386909  0.0000
  O3     O3        0.578921397080509    0.210617601083261    0.586626157454083  0.0000
  O1     O1        0.128897020139237    0.864042018196474    0.354808442524787  0.0000
  O3     O3        0.367363546695959    0.091522105919622    0.333315235077807  0.0000
  O1     O1        0.021544904079462    0.987175492642300    0.533351315206041  0.0000
  O3     O3        0.474453106633020    0.984717827183155    0.520923114710288  0.0000
  O1     O1        0.972548724343393    0.947786606041710    0.283826260243371  0.0000
  O3     O3        0.523108281748963    0.004529321077974    0.266288938289398  0.0000
  O1     O1        0.967221008409697    0.975779390702959    0.783163093350368  0.0000
  O3     O3        0.525900659005297    0.001259908657608    0.760862638640319  0.0000
  O3     O3        0.573501590850543    0.209367079334323    0.085540395990899  0.0000
  O1     O1        0.918337993737048    0.755096380796845    0.076106443311102  0.0000
  O1     O1        0.377804951825191    0.107191313791124    0.843042971867026  0.0000
  O1     O1        0.120283802288458    0.878485297786298    0.846626659474756  0.0000
  O1     O1        0.415222562086515    0.759780138130308    0.839458368073607  0.0000
  O1     O1        0.080084566032095    0.224551864634460    0.840867840966304  0.0000
  O3     O3        0.623260263579203    0.887376791804514    0.097700398679682  0.0000
  O1     O1        0.865701236193465    0.095888532752019    0.104154022763985  0.0000
  O3     O3        0.481695098397711    0.960692179803979    0.024340497819746  0.0000
  O1     O1        0.019782127892482    0.022397673462720    0.034444090757851  0.0000
  O1     O1        0.154349226654871    0.514768051591168    0.318897631320020  0.0000
  O3     O3        0.344359722540927    0.426054664250027    0.307544665371546  0.0000
  O3     O3        0.831020747516937    0.467410530233082    0.625781488253278  0.0000
  O1     O1        0.645297047527171    0.533803248510276    0.619321827588186  0.0000
  O3     O3        0.235420337495770    0.212536398161149    0.252906953711959  0.0000
  O1     O1        0.269430549741808    0.740531373768894    0.255890403860865  0.0000
  O1     O1        0.726457114190209    0.223827730050135    0.685872120244049  0.0000
  O3     O3        0.760039258541202    0.759342347790283    0.685979923310597  0.0000
  O1     O1        0.118447991747509    0.346111782199505    0.091727619602149  0.0000
  O1     O1        0.387862339824051    0.629585347376842    0.092639430753552  0.0000
  O1     O1        0.855653255607341    0.232254135408679    0.845942849761169  0.0000
  O1     O1        0.633613475881371    0.741163957142758    0.845439159586773  0.0000
  O3     O3        0.869701523745839    0.627330858440041    0.834040945296416  0.0000
  O1     O1        0.607620460757742    0.351292691740658    0.840663111745824  0.0000
  O1     O1        0.138868772911361    0.739979557712058    0.099152322703838  0.0000
  O3     O3        0.354547304999590    0.234783182601731    0.098893920085851  0.0000
  O1     O1        0.648489016524533    0.527347476257736    0.064882966468653  0.0000
  O1     O1        0.839337221178207    0.448335444433380    0.063041489240633  0.0000
  O1     O1        0.338311096358296    0.449572357700782    0.874847307713434  0.0000
  O1     O1        0.159194920521866    0.533914235912745    0.872655726322374  0.0000
  O1     O1        0.725638675122602    0.220317384627243    0.001106197206493  0.0000
  O1     O1        0.762425851529821    0.762150780592489    0.012085251252899  0.0000
  O1     O1        0.229822143310865    0.209309906839266    0.926282713849464  0.0000
  O1     O1        0.267893210316442    0.765760925242910    0.940504156493237  0.0000
