data_c01114.vasp
_audit_creation_method             Generated by GULP
_audit_author_name                 Salvador R. G. Balestra
_symmetry_space_group_name_H-M     'P 1             '
_symmetry_Int_Tables_number        1

loop_
_symmetry_equiv_pos_site_id
_symmetry_equiv_pos_as_xyz
_cell_length_a                       17.6723
_cell_length_b                        7.8243
_cell_length_c                       10.0294
_cell_angle_alpha                   88.3776
_cell_angle_beta                    90.1385
_cell_angle_gamma                   88.7664

loop_
_atom_site_label
_atom_site_type_symbol
_atom_site_fract_x
_atom_site_fract_y
_atom_site_fract_z
_atom_site_charge
  Ge     Ge        0.052090000000021    0.000000000000000    0.372269999999958  0.0000
  Ge     Ge        0.454441659432062    0.960114341119309    0.397563312288977  0.0000
  Ge     Ge        0.947446616206550    0.981960105287617    0.625846895282722  0.0000
  Ge     Ge        0.562283211480626    0.007622328029018    0.142412855220488  0.0000
  Ge     Ge        0.456728519135708    0.978116248053343    0.884877305250201  0.0000
  Ge     Ge        0.070406077274268    0.028279788672970    0.853108541027522  0.0000
  Ge     Ge        0.150747662603219    0.319187154152824    0.303815419429762  0.0000
  Ge     Ge        0.359090233266346    0.647906139216650    0.321173305284283  0.0000
  Ge     Ge        0.836508697449633    0.285085122436391    0.724752265372523  0.0000
  Ge     Ge        0.677614500763547    0.749930792607451    0.748252316370676  0.0000
  Ge     Ge        0.651451558489054    0.346945789107826    0.741187490313819  0.0000
  Ge     Ge        0.178604551963030    0.724465689577027    0.303427314030792  0.0000
  Ge     Ge        0.330213569628203    0.244590625504616    0.317426701526140  0.0000
  Ge     Ge        0.665682928336322    0.313544136603141    0.062298331165104  0.0000
  Ge     Ge        0.859438158277226    0.641802705352595    0.064883909187064  0.0000
  Ge     Ge        0.187239754376746    0.737111660000300    0.979868114783732  0.0000
  Ge     Ge        0.367605468983070    0.653860114409905    0.999549191834132  0.0000
  Ge     Ge        0.162032003594899    0.334895705851731    0.979881917286040  0.0000
  Ge     Ge        0.686503114059421    0.719509625465388    0.081683430487729  0.0000
  Ge     Ge        0.847128255709278    0.242200712982952    0.042618288465872  0.0000
  Si     Si        0.558925606549544    0.042798039522972    0.635911267285906  0.0000
  Si     Si        0.965245281895809    0.947932182003288    0.101944053299770  0.0000
  Si     Si        0.849427792200623    0.672711967638799    0.739410184885136  0.0000
  Si     Si        0.338935202936804    0.257882449179457    0.000693473482930  0.0000
  O1     O1        0.083334868496618    0.204966491075665    0.388310961396651  0.0000
  O1     O1        0.420261189401138    0.758270404682843    0.419728921080641  0.0000
  O1     O1        0.880642039240907    0.141713941394408    0.622197459987938  0.0000
  O3     O3        0.629709804179134    0.921536290065277    0.676989019184128  0.0000
  O3     O3        0.918563007802707    0.791403467428627    0.701022076547299  0.0000
  O3     O3        0.585096403335144    0.236256609525169    0.651826625534367  0.0000
  O1     O1        0.127330583594190    0.860196672081115    0.399996685142598  0.0000
  O1     O1        0.380462408663649    0.102825929426070    0.416786024980871  0.0000
  O1     O1        0.973748132951356    0.952159366804808    0.462027927150326  0.0000
  O3     O3        0.535219890241757    0.007509748790630    0.484466399054710  0.0000
  O3     O3        0.032321946059914    0.976354125144493    0.202903854914388  0.0000
  O1     O1        0.482598279726655    0.982017806513406    0.232886477592216  0.0000
  O1     O1        0.033388762030141    0.030024602666786    0.695185617405416  0.0000
  O3     O3        0.483209725754653    0.001709710981195    0.718994465391990  0.0000
  O1     O1        0.608698101677353    0.195438136680745    0.164434100285067  0.0000
  O3     O3        0.937111440634677    0.752093899828432    0.112913345636966  0.0000
  O3     O3        0.381756910731178    0.116344627554797    0.915562228708891  0.0000
  O1     O1        0.145006930712917    0.887486250917722    0.875634309173621  0.0000
  O1     O1        0.431786557136537    0.767954990865288    0.908434330724039  0.0000
  O1     O1        0.101419551203658    0.230038513010728    0.880415603382126  0.0000
  O1     O1        0.626921881972791    0.842498271637787    0.172955220626801  0.0000
  O3     O3        0.895464897857564    0.078610655403206    0.127930637605691  0.0000
  O1     O1        0.535058482119181    0.016771144792368    0.976579303349284  0.0000
  O3     O3        0.993896188117112    0.975130410374888    0.951480802146340  0.0000
  O1     O1        0.162985055559598    0.518410725613718    0.362987766613980  0.0000
  O1     O1        0.344201093110085    0.445397569406237    0.379510727934803  0.0000
  O3     O3        0.853502968831334    0.492867527930861    0.665507238272171  0.0000
  O1     O1        0.650991007409295    0.557574349196128    0.686800496115385  0.0000
  O1     O1        0.235815971878803    0.204765388695128    0.316622038909865  0.0000
  O1     O1        0.273966074326993    0.760055453505177    0.311766576004592  0.0000
  O1     O1        0.740707406831406    0.258162442029685    0.725623959482957  0.0000
  O3     O3        0.772168611140938    0.778408140829497    0.707254321050395  0.0000
  O1     O1        0.125908902743408    0.338666985191246    0.138148262955169  0.0000
  O1     O1        0.396408922453284    0.642143124407436    0.162717272883565  0.0000
  O1     O1        0.875901927994802    0.239549998024955    0.878556293473308  0.0000
  O1     O1        0.662720373233383    0.753133807046867    0.916167954640818  0.0000
  O3     O3        0.845577376465382    0.612256312045798    0.894736394794302  0.0000
  O1     O1        0.626430735183527    0.343868781030048    0.905887913733958  0.0000
  O1     O1        0.151459411933511    0.744384417180767    0.138322675861906  0.0000
  O3     O3        0.364616129780984    0.244159418945061    0.154775064791583  0.0000
  O1     O1        0.678841065413825    0.507635469272934    0.129534316451902  0.0000
  O1     O1        0.865901578032694    0.432421725589295    0.119103941792803  0.0000
  O3     O3        0.357615746947386    0.447664491752284    0.943573747719864  0.0000
  O1     O1        0.171723713514339    0.537744120546823    0.917394387045819  0.0000
  O1     O1        0.751743786369239    0.207430896131926    0.044735946274189  0.0000
  O1     O1        0.780519405185842    0.756247542765961    0.110934488918865  0.0000
  O3     O3        0.249462185816021    0.229114655724379    0.991823023040116  0.0000
  O1     O1        0.282871273310006    0.764154494408400    0.987343806833032  0.0000
