data_c01116.vasp
_audit_creation_method             Generated by GULP
_audit_author_name                 Salvador R. G. Balestra
_symmetry_space_group_name_H-M     'P 1             '
_symmetry_Int_Tables_number        1

loop_
_symmetry_equiv_pos_site_id
_symmetry_equiv_pos_as_xyz
_cell_length_a                       17.4672
_cell_length_b                        7.8626
_cell_length_c                       10.2767
_cell_angle_alpha                   88.9336
_cell_angle_beta                    90.0375
_cell_angle_gamma                   92.1986

loop_
_atom_site_label
_atom_site_type_symbol
_atom_site_fract_x
_atom_site_fract_y
_atom_site_fract_z
_atom_site_charge
  Ge     Ge        0.052090000000021    0.000000000000000    0.372269999999958  0.0000
  Ge     Ge        0.457180635897602    0.063494305035694    0.416809468335521  0.0000
  Ge     Ge        0.947404616372939    0.061379789695641    0.622610904249413  0.0000
  Ge     Ge        0.565646553751216    0.009834703319310    0.169045800340230  0.0000
  Ge     Ge        0.459100901455051    0.075239986982479    0.916124506504937  0.0000
  Ge     Ge        0.059231802317391    0.007183909179186    0.868876775276257  0.0000
  Ge     Ge        0.178056800513815    0.289339942240643    0.302855002395027  0.0000
  Ge     Ge        0.333475634211249    0.775399173523657    0.302431928338651  0.0000
  Ge     Ge        0.858256377337448    0.377119402484750    0.733941216958889  0.0000
  Ge     Ge        0.651041953316581    0.705851360489514    0.743109303448064  0.0000
  Ge     Ge        0.673441253364054    0.307298098743238    0.739061832946456  0.0000
  Ge     Ge        0.151066755898559    0.689589105110645    0.302773569086523  0.0000
  Ge     Ge        0.360837319307379    0.373709549285201    0.302965926414794  0.0000
  Ge     Ge        0.839714275762600    0.763902640227281    0.049912112454654  0.0000
  Ge     Ge        0.362156171632628    0.385043707455238    0.986129070685187  0.0000
  Ge     Ge        0.151662515697554    0.694885965959547    0.986344277625205  0.0000
  Ge     Ge        0.333969398903701    0.784790998522582    0.986564417201566  0.0000
  Ge     Ge        0.180287958062461    0.293909814832429    0.986414907811158  0.0000
  Ge     Ge        0.655141270524449    0.695623994580340    0.055583299063625  0.0000
  Ge     Ge        0.861172640689326    0.366153368452340    0.046866899842497  0.0000
  Si     Si        0.558533369936828    0.016880453045551    0.666537796216595  0.0000
  Si     Si        0.956612440904255    0.058962952489421    0.116467752541776  0.0000
  Si     Si        0.833465368393383    0.768666973804089    0.742747932022207  0.0000
  Si     Si        0.679243937454583    0.301605080709658    0.046861696199624  0.0000
  O1     O1        0.126484682950372    0.145257205913644    0.397556782239889  0.0000
  O1     O1        0.381600539927927    0.922299131432849    0.395239297095337  0.0000
  O1     O1        0.919321093495772    0.266383776753220    0.640039238845255  0.0000
  O3     O3        0.593973758651836    0.833238976877660    0.648033424872844  0.0000
  O3     O3        0.871768781745682    0.920481345719963    0.657913077690280  0.0000
  O3     O3        0.624801529270417    0.162236894236391    0.642989677740981  0.0000
  O1     O1        0.085803877925915    0.799189262442172    0.390097874086569  0.0000
  O1     O1        0.427668968137110    0.266267831714696    0.390708351645062  0.0000
  O1     O1        0.973364995275560    0.033605733630971    0.463345017112541  0.0000
  O3     O3        0.484957525440705    0.044041482780721    0.579250620730182  0.0000
  O3     O3        0.027762521687531    0.028071793457058    0.208208467393178  0.0000
  O1     O1        0.536805606715293    0.022446776680883    0.327625835486973  0.0000
  O1     O1        0.028033195278801    0.020872473632271    0.711106505870084  0.0000
  O3     O3        0.534890922752574    0.033662260257344    0.818015618275238  0.0000
  O3     O3        0.641066196772891    0.153529642371908    0.135690832366530  0.0000
  O3     O3        0.891021193342817    0.911288138038333    0.138604444397864  0.0000
  O1     O1        0.427003065770622    0.277782631338773    0.896615047399069  0.0000
  O1     O1        0.085266405531531    0.801944535236096    0.898102157609401  0.0000
  O1     O1        0.383350990813260    0.932164784618559    0.892994213346402  0.0000
  O1     O1        0.136144563440689    0.145773246038426    0.889821839954158  0.0000
  O1     O1        0.594301217917968    0.804715177594282    0.149717431561616  0.0000
  O3     O3        0.918906525937210    0.239760719824073    0.140821698489132  0.0000
  O1     O1        0.487876808505123    0.054004972842926    0.075812613910161  0.0000
  O3     O3        0.983393710359555    0.059743867502919    0.966388565145685  0.0000
  O1     O1        0.163474337436018    0.489477595928795    0.363445917402135  0.0000
  O1     O1        0.347868861368118    0.572679831355930    0.362540904793627  0.0000
  O3     O3        0.849010805586524    0.586279515083205    0.680223970523281  0.0000
  O1     O1        0.652764575888749    0.507459612627711    0.680537059263943  0.0000
  O1     O1        0.274731520328903    0.258104971525389    0.306701255624355  0.0000
  O1     O1        0.236825643056503    0.806531236500218    0.302965357458869  0.0000
  O1     O1        0.769120634294714    0.276960348315438    0.728001325620079  0.0000
  O3     O3        0.743185945960529    0.794654189022149    0.752838026183494  0.0000
  O1     O1        0.147425375431453    0.278511246768971    0.143783428758080  0.0000
  O1     O1        0.366233160961910    0.793054914472017    0.145058209990557  0.0000
  O1     O1        0.893621844832070    0.377648350379064    0.889214761740517  0.0000
  O1     O1        0.618659603777594    0.697566695673568    0.900557219006305  0.0000
  O3     O3        0.868367486294494    0.770308199336888    0.887953623681674  0.0000
  O3     O3        0.644553069280475    0.296975229552325    0.901248851680343  0.0000
  O1     O1        0.120755258412278    0.672263973425312    0.144292510120940  0.0000
  O1     O1        0.392172521980694    0.398101536987542    0.145356495018783  0.0000
  O3     O3        0.664197451767155    0.485755984941540    0.106867565397943  0.0000
  O1     O1        0.859197033788513    0.564120113197216    0.110622320487475  0.0000
  O1     O1        0.349572526263538    0.585021088709482    0.925910343935603  0.0000
  O1     O1        0.164407012497597    0.496482642763471    0.926247844487745  0.0000
  O3     O3        0.769506915607568    0.275296544336485    0.036777513653699  0.0000
  O1     O1        0.744225078430053    0.796102978893632    0.061705421989959  0.0000
  O1     O1        0.277076343843525    0.266340880077492    0.987760250246114  0.0000
  O1     O1        0.237226254388661    0.812465178400464    0.984880916793926  0.0000
