data_c01193.vasp
_audit_creation_method             Generated by GULP
_audit_author_name                 Salvador R. G. Balestra
_symmetry_space_group_name_H-M     'P 1             '
_symmetry_Int_Tables_number        1

loop_
_symmetry_equiv_pos_site_id
_symmetry_equiv_pos_as_xyz
_cell_length_a                       17.5954
_cell_length_b                        7.8074
_cell_length_c                       10.1935
_cell_angle_alpha                   89.2296
_cell_angle_beta                    89.8631
_cell_angle_gamma                   88.7757

loop_
_atom_site_label
_atom_site_type_symbol
_atom_site_fract_x
_atom_site_fract_y
_atom_site_fract_z
_atom_site_charge
  Ge     Ge        0.052090000000021    0.000000000000000    0.372269999999958  0.0000
  Ge     Ge        0.451668392694516    0.947115985013600    0.411819547993123  0.0000
  Ge     Ge        0.943656399761168    0.956316170353912    0.619921325030137  0.0000
  Ge     Ge        0.954107766608905    0.938068875194454    0.111812110123136  0.0000
  Ge     Ge        0.452832575511640    0.944696506620409    0.916403069847619  0.0000
  Ge     Ge        0.059217801714501    0.005954835187047    0.857599621987980  0.0000
  Ge     Ge        0.148984081642182    0.316760945793442    0.299505610467417  0.0000
  Ge     Ge        0.357011890914392    0.636895321271830    0.296458376205205  0.0000
  Ge     Ge        0.827321469906130    0.252246323420256    0.729601866893945  0.0000
  Ge     Ge        0.670191358661011    0.720463214044281    0.735758251825793  0.0000
  Ge     Ge        0.644724311825259    0.319937525262730    0.729172749496156  0.0000
  Ge     Ge        0.177616625722706    0.721590370062366    0.297899525490601  0.0000
  Ge     Ge        0.329258798812612    0.231678031372548    0.300567157974266  0.0000
  Ge     Ge        0.646802042939142    0.308492896050932    0.046661006692795  0.0000
  Ge     Ge        0.850130687481007    0.630032113134854    0.055876957644414  0.0000
  Ge     Ge        0.331892424360502    0.238820379646932    0.984186125467203  0.0000
  Ge     Ge        0.179119001520842    0.721056878800562    0.979099217816302  0.0000
  Ge     Ge        0.150433598745307    0.318037152232908    0.979808058144601  0.0000
  Ge     Ge        0.671374003023506    0.713337107820661    0.056951149213009  0.0000
  Ge     Ge        0.828045476165781    0.226159713080283    0.045012269189195  0.0000
  Si     Si        0.553031367027569    0.004106205867690    0.662104505776263  0.0000
  Si     Si        0.555304924218732    0.999663301648388    0.165834887835147  0.0000
  Si     Si        0.847429678442753    0.648220002926112    0.740320269662692  0.0000
  Si     Si        0.355430389828687    0.634633128324780    0.984374701206301  0.0000
  O1     O1        0.084047185345988    0.204569577988691    0.390803216028953  0.0000
  O1     O1        0.425702195856259    0.741693217865896    0.380145702519628  0.0000
  O1     O1        0.876010289577548    0.115715061898550    0.628644468409005  0.0000
  O3     O3        0.624535694531224    0.874679515405818    0.640614773260018  0.0000
  O3     O3        0.910532162505476    0.757854685018272    0.666042162485392  0.0000
  O3     O3        0.580859304442779    0.197418337501644    0.642891145765554  0.0000
  O1     O1        0.127248091341148    0.858343121905377    0.395911843468187  0.0000
  O1     O1        0.375096381983758    0.083595877420662    0.398612179306695  0.0000
  O1     O1        0.972596272604129    0.949763154872276    0.458000045031913  0.0000
  O3     O3        0.482344997291942    0.960296672117245    0.572962870260321  0.0000
  O1     O1        0.028971760602194    0.982395559759938    0.207306014152876  0.0000
  O3     O3        0.528067249695416    0.003684927382797    0.315648105483127  0.0000
  O1     O1        0.027070062872995    0.000848045755975    0.698764396965781  0.0000
  O3     O3        0.528468016127753    0.974469363570785    0.814046533678874  0.0000
  O3     O3        0.580243955335842    0.191084157002890    0.129817936129615  0.0000
  O1     O1        0.919649088853571    0.734423484748624    0.135921020358860  0.0000
  O1     O1        0.384300795464548    0.100803912819090    0.889779678558133  0.0000
  O1     O1        0.137880770023617    0.874278916393481    0.880526610453505  0.0000
  O3     O3        0.414948535246231    0.742396730971592    0.899645522127706  0.0000
  O1     O1        0.084265681533367    0.212184443112061    0.891706695743814  0.0000
  O3     O3        0.624690029751686    0.864348652679606    0.150229316619555  0.0000
  O1     O1        0.878825675038523    0.079879940783135    0.135342563989779  0.0000
  O3     O3        0.484637107922416    0.946388178353433    0.077040900652657  0.0000
  O1     O1        0.983450521301855    0.943622566853399    0.950512577876847  0.0000
  O1     O1        0.163026280807556    0.516409518985616    0.357915933566398  0.0000
  O1     O1        0.344245647693069    0.435019280910766    0.358372608777343  0.0000
  O3     O3        0.838447606950248    0.463059385574643    0.675629769335994  0.0000
  O1     O1        0.651379320866568    0.524276810583420    0.668589369969113  0.0000
  O1     O1        0.233317093907167    0.199208944942516    0.299341778002638  0.0000
  O1     O1        0.273566604597929    0.755868225810400    0.303759407327227  0.0000
  O1     O1        0.731762888193753    0.215645980326355    0.727245475513701  0.0000
  O3     O3        0.767402157757102    0.753055073699422    0.733867827144122  0.0000
  O1     O1        0.119682145891082    0.335855410585553    0.139019189659254  0.0000
  O3     O3        0.383217561155191    0.609812413621149    0.134036570626531  0.0000
  O1     O1        0.861127440267841    0.216874873707270    0.885433921670217  0.0000
  O1     O1        0.641583773256283    0.726463961120590    0.896828933170107  0.0000
  O3     O3        0.871086682148719    0.611897749990364    0.889723794182964  0.0000
  O1     O1        0.615437789100332    0.338554124243047    0.888982845862238  0.0000
  O1     O1        0.146439870311225    0.738192562379660    0.137566436689108  0.0000
  O1     O1        0.362711819337305    0.211691399560584    0.142797543023135  0.0000
  O1     O1        0.656979088520579    0.506775074613781    0.113770327098342  0.0000
  O1     O1        0.841082697672910    0.425655407553245    0.112135229146891  0.0000
  O3     O3        0.343927378999649    0.448002560485787    0.926028166618644  0.0000
  O1     O1        0.160260519909273    0.522001514092152    0.918658073613615  0.0000
  O1     O1        0.731871518631522    0.195477604745148    0.043831898516190  0.0000
  O1     O1        0.766828111213741    0.748293121783548    0.067311544722749  0.0000
  O1     O1        0.236134307563617    0.205735506732744    0.976859221497870  0.0000
  O3     O3        0.276635015934568    0.744443833134202    0.986152425139611  0.0000
