data_c01174.vasp
_audit_creation_method             Generated by GULP
_audit_author_name                 Salvador R. G. Balestra
_symmetry_space_group_name_H-M     'P 1             '
_symmetry_Int_Tables_number        1

loop_
_symmetry_equiv_pos_site_id
_symmetry_equiv_pos_as_xyz
_cell_length_a                       17.5234
_cell_length_b                        7.8266
_cell_length_c                       10.2388
_cell_angle_alpha                   90.0902
_cell_angle_beta                    89.4213
_cell_angle_gamma                   88.2907

loop_
_atom_site_label
_atom_site_type_symbol
_atom_site_fract_x
_atom_site_fract_y
_atom_site_fract_z
_atom_site_charge
  Ge     Ge        0.052090000000021    0.000000000000000    0.372269999999958  0.0000
  Ge     Ge        0.446428852622073    0.948711800352321    0.340653762344830  0.0000
  Ge     Ge        0.947622583858535    0.937777348334151    0.624008421913763  0.0000
  Ge     Ge        0.939980503072781    0.947396037969288    0.132496110224157  0.0000
  Ge     Ge        0.444640719272115    0.950862326293223    0.835491822615876  0.0000
  Ge     Ge        0.047045011456944    0.014544258534603    0.880335832942837  0.0000
  Ge     Ge        0.142042597047471    0.319009690120884    0.253301731022610  0.0000
  Ge     Ge        0.348373276969770    0.636231544940317    0.263813000219569  0.0000
  Ge     Ge        0.822242916068498    0.223461860967660    0.698920038294336  0.0000
  Ge     Ge        0.665598377669345    0.704988668379321    0.693568186120680  0.0000
  Ge     Ge        0.847934069988615    0.625786456866214    0.692284993417488  0.0000
  Ge     Ge        0.639360266111174    0.303397577666034    0.700947218373305  0.0000
  Ge     Ge        0.324687092399212    0.234027366247637    0.258120122779762  0.0000
  Ge     Ge        0.637990825896970    0.318699238340154    0.016031979395035  0.0000
  Ge     Ge        0.845850488544043    0.637651349354033    0.010624325048723  0.0000
  Ge     Ge        0.326958413440279    0.247720822586819    0.942923393842670  0.0000
  Ge     Ge        0.174042571201770    0.727132135908006    0.948577144760538  0.0000
  Ge     Ge        0.144271053731541    0.328827740753983    0.937303613048880  0.0000
  Ge     Ge        0.663405411791454    0.719377988006851    0.010825607805668  0.0000
  Ge     Ge        0.819851497473830    0.233604814295343    0.014724326150156  0.0000
  Si     Si        0.550037136135541    0.991535924521022    0.587539624981670  0.0000
  Si     Si        0.545285057320867    0.009250519533288    0.085300686528490  0.0000
  Si     Si        0.170642149900191    0.713593935028217    0.258808964327022  0.0000
  Si     Si        0.351357212605989    0.645534370940016    0.952979431581157  0.0000
  O1     O1        0.078045849420916    0.206235073468517    0.344050686465633  0.0000
  O1     O1        0.411813557987577    0.747100440330875    0.353970412416032  0.0000
  O1     O1        0.872295248685538    0.081073633426859    0.602541792084605  0.0000
  O3     O3        0.621425020554722    0.860696332547898    0.599699096276852  0.0000
  O1     O1        0.913718190448475    0.736269942823684    0.603301844462590  0.0000
  O3     O3        0.573074849722904    0.183495477085083    0.620864553698703  0.0000
  O3     O3        0.127096915617384    0.856769462133020    0.344374109429943  0.0000
  O1     O1        0.371145685589814    0.091654129332201    0.358153239863202  0.0000
  O1     O1        0.026793705347320    0.981665062822936    0.534784335887340  0.0000
  O3     O3        0.522260860863994    0.987008277467544    0.438418777840754  0.0000
  O1     O1        0.970533626594009    0.949883987450599    0.291527344541396  0.0000
  O3     O3        0.475493548752855    0.970780641984271    0.178651899936197  0.0000
  O1     O1        0.973492851852585    0.956552415148332    0.786592251687979  0.0000
  O3     O3        0.479309608561267    0.934318730459774    0.677165274703811  0.0000
  O3     O3        0.575837654037073    0.199042719127331    0.108528187973751  0.0000
  O1     O1        0.912832436486434    0.743826298193551    0.096155259811356  0.0000
  O1     O1        0.374226978180538    0.106900481496963    0.840515324164294  0.0000
  O1     O1        0.126665679398250    0.879241292474032    0.862537340195523  0.0000
  O3     O3        0.413345160121030    0.749014183702706    0.872877137876637  0.0000
  O1     O1        0.079635503284480    0.216216896757536    0.849752847712090  0.0000
  O3     O3        0.614201413226949    0.870228838521740    0.103825142239345  0.0000
  O1     O1        0.863361435283731    0.086641503721775    0.113942656245302  0.0000
  O3     O3        0.519338235745645    0.001837164940976    0.934370853336938  0.0000
  O1     O1        0.016979073186403    0.006936796007581    0.040976243307298  0.0000
  O3     O3        0.154290218128964    0.524326837450336    0.313223619883624  0.0000
  O1     O1        0.341265729097404    0.434620626127743    0.320693385336517  0.0000
  O1     O1        0.836817916242919    0.424292148843153    0.634778882754446  0.0000
  O1     O1        0.649970079420052    0.502850021066544    0.633729962272705  0.0000
  O1     O1        0.228178421700858    0.207993993284873    0.257030584938237  0.0000
  O3     O3        0.260613658151670    0.745115833340625    0.264707055376022  0.0000
  O1     O1        0.725715154603741    0.192682345742437    0.700028223853451  0.0000
  O1     O1        0.761717376091152    0.738042402792474    0.691235804328723  0.0000
  O1     O1        0.111132816104346    0.335449647414595    0.096664792308767  0.0000
  O3     O3        0.377919099710558    0.623819661071335    0.101772191435056  0.0000
  O1     O1        0.855002501611902    0.212636636022541    0.857371811228308  0.0000
  O1     O1        0.632869318452473    0.722775509931566    0.851757179649751  0.0000
  O1     O1        0.876694903024795    0.612825664454660    0.852121910715788  0.0000
  O1     O1        0.607964691385979    0.340016279803574    0.857443358270209  0.0000
  O3     O3        0.142218071583479    0.726638048287122    0.109915206021194  0.0000
  O1     O1        0.358105632287500    0.216505612285196    0.099488777732125  0.0000
  O1     O1        0.647658686950316    0.519648513378415    0.077164756900426  0.0000
  O1     O1        0.834017577228857    0.436997205038587    0.072892577462157  0.0000
  O3     O3        0.340750585422233    0.458078242000563    0.893684019032982  0.0000
  O1     O1        0.154151114984797    0.531394081550642    0.881005436275871  0.0000
  O1     O1        0.723541219417474    0.205509287147932    0.009968177501922  0.0000
  O1     O1        0.759773136881168    0.751195042362728    0.013236306655177  0.0000
  O1     O1        0.230801943817915    0.218175641100347    0.937554047011862  0.0000
  O3     O3        0.271449036199623    0.754181578585935    0.947560148162524  0.0000
