data_c01164.vasp
_audit_creation_method             Generated by GULP
_audit_author_name                 Salvador R. G. Balestra
_symmetry_space_group_name_H-M     'P 1             '
_symmetry_Int_Tables_number        1

loop_
_symmetry_equiv_pos_site_id
_symmetry_equiv_pos_as_xyz
_cell_length_a                       17.7199
_cell_length_b                        7.8923
_cell_length_c                       10.3175
_cell_angle_alpha                   89.8665
_cell_angle_beta                    90.6428
_cell_angle_gamma                   89.3443

loop_
_atom_site_label
_atom_site_type_symbol
_atom_site_fract_x
_atom_site_fract_y
_atom_site_fract_z
_atom_site_charge
  Ge     Ge        0.052090000000021    0.000000000000000    0.372269999999958  0.0000
  Ge     Ge        0.447227593833798    0.969018633828672    0.354910638286757  0.0000
  Ge     Ge        0.942169083379364    0.999774865197716    0.617906423431080  0.0000
  Ge     Ge        0.938275406272199    0.008347984135497    0.127928601912029  0.0000
  Ge     Ge        0.448511576063438    0.979261253128495    0.865080502056625  0.0000
  Ge     Ge        0.044431247309340    0.005713822243384    0.876471846083107  0.0000
  Ge     Ge        0.152359213739310    0.308886192346712    0.255958647140634  0.0000
  Ge     Ge        0.351844392333706    0.652911079440417    0.254950703032299  0.0000
  Ge     Ge        0.838242623289288    0.309931995585044    0.696458320051083  0.0000
  Ge     Ge        0.643387293659154    0.681106990341794    0.686355074806963  0.0000
  Ge     Ge        0.824320226196957    0.716750574774806    0.687038088525245  0.0000
  Ge     Ge        0.656174149723555    0.274449700247454    0.693695585620033  0.0000
  Ge     Ge        0.169907484810063    0.710422850877634    0.258090582633887  0.0000
  Ge     Ge        0.657200825725098    0.290065922199188    0.006395327776446  0.0000
  Ge     Ge        0.823783877398615    0.725885007069674    0.000257444577942  0.0000
  Ge     Ge        0.325820342671547    0.262490817140002    0.935110311316113  0.0000
  Ge     Ge        0.168316226911843    0.722119744673072    0.943451585855573  0.0000
  Ge     Ge        0.349932734311330    0.664494266217755    0.941881783445877  0.0000
  Ge     Ge        0.146120955249029    0.318749481321158    0.938609594083804  0.0000
  Ge     Ge        0.841343800853939    0.322938376870531    0.012138333797017  0.0000
  Si     Si        0.546122482198822    0.991489788105031    0.609053662025318  0.0000
  Si     Si        0.552971755459083    0.995756437921026    0.112385139200491  0.0000
  Si     Si        0.329907187080432    0.258344497979458    0.245634052011506  0.0000
  Si     Si        0.644066793224468    0.686961310556297    0.992165975039234  0.0000
  O1     O1        0.090275844926667    0.194937533413723    0.344699331022158  0.0000
  O1     O1        0.412104566505383    0.768572457928085    0.350245004416454  0.0000
  O1     O1        0.896769724726253    0.192093098458890    0.600757673022980  0.0000
  O3     O3        0.582998489488394    0.805465996736955    0.592903478651595  0.0000
  O1     O1        0.877711820503332    0.842301144443533    0.589819975904744  0.0000
  O3     O3        0.608199581514797    0.136838182397912    0.593146046420690  0.0000
  O1     O1        0.120633341936916    0.849333075511433    0.352416891176207  0.0000
  O3     O3        0.377021435366438    0.115342384859678    0.321308479700653  0.0000
  O1     O1        0.022613137123728    0.987738939623825    0.530549527919502  0.0000
  O3     O3        0.476595749590414    0.013589459022978    0.511749374323561  0.0000
  O1     O1        0.970175221944752    0.975084376601796    0.283568933761922  0.0000
  O3     O3        0.525956178399226    0.985052642876933    0.259174591842421  0.0000
  O1     O1        0.968468572085282    0.976484206976756    0.778950773825147  0.0000
  O3     O3        0.518950693344407    0.011712426288651    0.757183574657300  0.0000
  O3     O3        0.609767122727559    0.152150994215418    0.105014575670745  0.0000
  O1     O1        0.864064602876022    0.875846553114046    0.095052114202453  0.0000
  O1     O1        0.375544874660291    0.123334113701839    0.844081446659253  0.0000
  O1     O1        0.117335282774167    0.863040835317164    0.852120275365054  0.0000
  O1     O1        0.411792677795157    0.780585122177853    0.852159622929562  0.0000
  O1     O1        0.079671178562041    0.206328093243868    0.855290516721306  0.0000
  O2     O2        0.591692256900731    0.817287281953709    0.071134355561937  0.0000
  O1     O1        0.903652592165413    0.211053208476564    0.107092113589377  0.0000
  O3     O3        0.480641488498411    0.024884460208020    0.020435872482870  0.0000
  O1     O1        0.015334124810645    0.972650151587481    0.033423176616397  0.0000
  O1     O1        0.156979593527825    0.508924906771790    0.317279319172330  0.0000
  O3     O3        0.344364285174125    0.444406273733793    0.306164084875388  0.0000
  O1     O1        0.831181415975487    0.510516920314906    0.635308288944562  0.0000
  O1     O1        0.646221162283149    0.477182940251547    0.631915747676545  0.0000
  O3     O3        0.241631908724304    0.215241314321095    0.255380700760445  0.0000
  O1     O1        0.264592763044982    0.749468161972870    0.260640111789026  0.0000
  O1     O1        0.750004353189817    0.220416073494970    0.699128118534420  0.0000
  O1     O1        0.730508078532254    0.772562914621086    0.680895048136797  0.0000
  O1     O1        0.120018927455225    0.317740529308301    0.099055079477235  0.0000
  O1     O1        0.383661963541366    0.661888100499293    0.098980933869274  0.0000
  O1     O1        0.871456601789265    0.314060875206204    0.854010491610438  0.0000
  O3     O3        0.612368223653486    0.674460481382493    0.845848512894960  0.0000
  O1     O1        0.856859362842644    0.730152851615185    0.844849227774376  0.0000
  O1     O1        0.624402223738120    0.271251367820263    0.850758294986444  0.0000
  O1     O1        0.137421042315307    0.724086768951104    0.101305909068216  0.0000
  O3     O3        0.354119576746259    0.265795388274922    0.096671729621068  0.0000
  O3     O3        0.644704733292432    0.500655350170125    0.055279159974177  0.0000
  O1     O1        0.840759345741171    0.528670912468439    0.064876473443008  0.0000
  O1     O1        0.339939212386648    0.466212956081499    0.879674094079313  0.0000
  O1     O1        0.154142101887564    0.520793158488516    0.882634993987260  0.0000
  O1     O1        0.751431048142329    0.243153134264636    0.016565624127713  0.0000
  O3     O3        0.727534015388577    0.761648822660285    0.987664587679849  0.0000
  O1     O1        0.232046980270528    0.215943153068426    0.927143342694979  0.0000
  O1     O1        0.262758950024460    0.764559860575888    0.943089854299573  0.0000
