data_c01141.vasp
_audit_creation_method             Generated by GULP
_audit_author_name                 Salvador R. G. Balestra
_symmetry_space_group_name_H-M     'P 1             '
_symmetry_Int_Tables_number        1

loop_
_symmetry_equiv_pos_site_id
_symmetry_equiv_pos_as_xyz
_cell_length_a                       17.6944
_cell_length_b                        7.8230
_cell_length_c                       10.5193
_cell_angle_alpha                   89.2811
_cell_angle_beta                    90.5345
_cell_angle_gamma                   90.2965

loop_
_atom_site_label
_atom_site_type_symbol
_atom_site_fract_x
_atom_site_fract_y
_atom_site_fract_z
_atom_site_charge
  Ge     Ge        0.052090000000021    0.000000000000000    0.372269999999958  0.0000
  Ge     Ge        0.450319236447989    0.967175596597804    0.370797647352980  0.0000
  Ge     Ge        0.947993866915964    0.994208289468200    0.628349619763582  0.0000
  Ge     Ge        0.554128721724744    0.973038040035378    0.112462389952252  0.0000
  Ge     Ge        0.054999155406053    0.002645466919275    0.883917639025286  0.0000
  Ge     Ge        0.151272716589172    0.313416012923585    0.264943945609903  0.0000
  Ge     Ge        0.353617036244127    0.654454840931639    0.279260540977661  0.0000
  Ge     Ge        0.847971170788024    0.305028138990108    0.712063368787452  0.0000
  Ge     Ge        0.644890563072484    0.651130599878817    0.718676975110595  0.0000
  Ge     Ge        0.825773837476795    0.711724588857386    0.705789156997212  0.0000
  Ge     Ge        0.667186245523938    0.245300030315852    0.727980105021640  0.0000
  Ge     Ge        0.175236060173483    0.720811564817211    0.269056877132224  0.0000
  Ge     Ge        0.330383319129697    0.243475466354232    0.274796327658502  0.0000
  Ge     Ge        0.677025997927936    0.253511093653114    0.037289732981984  0.0000
  Ge     Ge        0.833469038103949    0.718452521421431    0.014898029388676  0.0000
  Ge     Ge        0.337508128315248    0.267148128775592    0.967491787436748  0.0000
  Ge     Ge        0.177910742324510    0.723918553841337    0.960754398009222  0.0000
  Ge     Ge        0.154757086781724    0.321901957344379    0.954167479615012  0.0000
  Ge     Ge        0.651898682500887    0.656511671913977    0.028878527836357  0.0000
  Ge     Ge        0.858435645474031    0.310524491291168    0.021651523647425  0.0000
  Si     Si        0.548419988823056    0.959466673616243    0.626204553053959  0.0000
  Si     Si        0.950812583403446    0.997538213824236    0.125885313908073  0.0000
  Si     Si        0.448283617171579    0.982524686578390    0.868305599464700  0.0000
  Si     Si        0.356803723643042    0.669575456551047    0.978054616223716  0.0000
  O1     O1        0.084618436166991    0.204308402465679    0.350621332968719  0.0000
  O1     O1        0.417982145232435    0.760637626181287    0.372118763261888  0.0000
  O1     O1        0.908971863163673    0.194033977149826    0.618866970354918  0.0000
  O3     O3        0.578951208424062    0.767307477628736    0.631549354750952  0.0000
  O1     O1        0.876221554017970    0.847206184158770    0.609993588331793  0.0000
  O3     O3        0.617017172930329    0.088942748931330    0.650938028139472  0.0000
  O1     O1        0.124772566653911    0.858736584411521    0.358368535430313  0.0000
  O1     O1        0.375712493121352    0.106460113916350    0.376741136882882  0.0000
  O1     O1        0.019660272978760    0.972431881036222    0.524051283806261  0.0000
  O3     O3        0.516307901177560    0.002392151610133    0.487233992643098  0.0000
  O3     O3        0.976902844107379    0.962546567165642    0.269923862039833  0.0000
  O1     O1        0.490062298913205    0.012677636998772    0.225634475812438  0.0000
  O1     O1        0.984883463888529    0.960000768459635    0.779329080505753  0.0000
  O2     O2        0.480002775305348    0.980790598901871    0.725409335615374  0.0000
  O1     O1        0.630571438969166    0.109041972866388    0.129457326679187  0.0000
  O3     O3        0.880146037471548    0.874388500028717    0.098194920946222  0.0000
  O3     O3        0.385675466494152    0.129720799649607    0.870755722712131  0.0000
  O1     O1        0.132929898991700    0.871863445040545    0.869054952414956  0.0000
  O2     O2        0.413782869309113    0.795123112645574    0.902261307695155  0.0000
  O1     O1        0.090592458105525    0.206266459537210    0.867448291652694  0.0000
  O1     O1        0.589238676422628    0.769389249114211    0.117828143798665  0.0000
  O3     O3        0.925341823073875    0.193877361446518    0.105364224886875  0.0000
  O3     O3        0.515999466425197    0.023592310050451    0.963957637546044  0.0000
  O3     O3        0.021395226358141    0.960283706702521    0.035871913878449  0.0000
  O1     O1        0.163430933388014    0.513652310133385    0.324436290231572  0.0000
  O1     O1        0.342276437921906    0.449604343153942    0.329839298756975  0.0000
  O1     O1        0.836045745170774    0.506032490372258    0.651892117997515  0.0000
  O1     O1        0.651211161181516    0.446614205857407    0.663552266075895  0.0000
  O1     O1        0.235327456852052    0.202127314809081    0.269728721151109  0.0000
  O1     O1        0.270145878948864    0.765621747290411    0.280215620745430  0.0000
  O1     O1        0.761875380121542    0.200984706016343    0.718133436022924  0.0000
  O1     O1        0.731047310862535    0.753554084539355    0.707025639926651  0.0000
  O1     O1        0.123674520697766    0.326170624387647    0.108459356124699  0.0000
  O3     O3        0.385785851079150    0.656405695338014    0.122930558011788  0.0000
  O1     O1        0.884411718644705    0.312094771432757    0.864566170752506  0.0000
  O1     O1        0.618409310639553    0.647673904548101    0.874994673599813  0.0000
  O1     O1        0.860450347946932    0.722091627731009    0.858996548481824  0.0000
  O1     O1        0.642371545126728    0.252280624836530    0.883922076349609  0.0000
  O1     O1        0.145303125991946    0.730867746427903    0.113895293861840  0.0000
  O1     O1        0.365140116216654    0.235109890940584    0.122142278326426  0.0000
  O1     O1        0.663983105790318    0.457579571490015    0.093458380469341  0.0000
  O1     O1        0.853098192583044    0.516483924229009    0.074812912595179  0.0000
  O3     O3        0.353701626563681    0.479912253501018    0.921584586816149  0.0000
  O1     O1        0.160963094747382    0.526144342930592    0.896497756004738  0.0000
  O1     O1        0.771933610316274    0.212591438633362    0.034455561988063  0.0000
  O1     O1        0.738686365804712    0.758033569659624    0.023129141190532  0.0000
  O1     O1        0.242741260288334    0.227969379807064    0.953252347374778  0.0000
  O3     O3        0.274629690351756    0.755320873284951    0.972258714538244  0.0000
