data_c01155.vasp
_audit_creation_method             Generated by GULP
_audit_author_name                 Salvador R. G. Balestra
_symmetry_space_group_name_H-M     'P 1             '
_symmetry_Int_Tables_number        1

loop_
_symmetry_equiv_pos_site_id
_symmetry_equiv_pos_as_xyz
_cell_length_a                       17.7015
_cell_length_b                        7.8393
_cell_length_c                       10.4807
_cell_angle_alpha                   89.5978
_cell_angle_beta                    90.2960
_cell_angle_gamma                   89.9767

loop_
_atom_site_label
_atom_site_type_symbol
_atom_site_fract_x
_atom_site_fract_y
_atom_site_fract_z
_atom_site_charge
  Ge     Ge        0.052090000000021    0.000000000000000    0.372269999999958  0.0000
  Ge     Ge        0.453033692246842    0.029896514774910    0.395872387240201  0.0000
  Ge     Ge        0.951326709879965    0.994165831197536    0.629004933523110  0.0000
  Ge     Ge        0.949540423849818    0.999064167272152    0.115904108455759  0.0000
  Ge     Ge        0.449455379304852    0.026201000951287    0.899598192380961  0.0000
  Ge     Ge        0.061178281771695    0.005858529456243    0.873640156670821  0.0000
  Ge     Ge        0.174439295142570    0.276751143554431    0.290603151993077  0.0000
  Ge     Ge        0.330910484854910    0.749460604682346    0.288185610118296  0.0000
  Ge     Ge        0.828455855465324    0.278143530851314    0.740335051641801  0.0000
  Ge     Ge        0.668294325143659    0.739725206607291    0.728306846950421  0.0000
  Ge     Ge        0.849546699223789    0.683844164896274    0.733930839475207  0.0000
  Ge     Ge        0.647126602115705    0.333379776462208    0.732887233365429  0.0000
  Ge     Ge        0.151093083097275    0.689287184074248    0.289715782652224  0.0000
  Ge     Ge        0.353780977867432    0.341083695946010    0.289876572739421  0.0000
  Ge     Ge        0.643791939297856    0.335835743564294    0.042388125559897  0.0000
  Ge     Ge        0.848971907130669    0.682875380849852    0.046011885280590  0.0000
  Ge     Ge        0.350008412039095    0.343336157663356    0.977628616697035  0.0000
  Ge     Ge        0.329935077720984    0.744767121361230    0.979179337399546  0.0000
  Ge     Ge        0.667820041863329    0.742099165983011    0.038974886472901  0.0000
  Ge     Ge        0.825452978692000    0.279591143054958    0.049666095638997  0.0000
  Si     Si        0.552733398418250    0.022518725736901    0.650025261866745  0.0000
  Si     Si        0.553106531200593    0.021687192063144    0.147284460248171  0.0000
  Si     Si        0.151300277127221    0.691476989296496    0.990208450590565  0.0000
  Si     Si        0.171744158836515    0.292124493057090    0.988718408309765  0.0000
  O1     O1        0.124234627878624    0.145892727806590    0.388743065506741  0.0000
  O1     O1        0.379674652393662    0.890056432549822    0.380325370285514  0.0000
  O1     O1        0.879124887284240    0.134526528423710    0.654860297066665  0.0000
  O3     O3        0.618510825508725    0.882718632919465    0.634042646188539  0.0000
  O1     O1        0.916516139380778    0.791895329730916    0.648894226017295  0.0000
  O3     O3        0.587277242904072    0.211399167837636    0.639078822628138  0.0000
  O1     O1        0.088456103705582    0.796974230011517    0.382994313075397  0.0000
  O1     O1        0.420517100049969    0.233611732336576    0.377676220628864  0.0000
  O1     O1        0.978587736368026    0.024652194926966    0.472962357254296  0.0000
  O3     O3        0.486509138066731    0.998491859088475    0.549201430284073  0.0000
  O1     O1        0.021406446958105    0.036631221506247    0.218054823777696  0.0000
  O3     O3        0.525072499764229    0.989810355100003    0.290158018911746  0.0000
  O1     O1        0.032063387330742    0.022927505337073    0.717948060509361  0.0000
  O3     O3        0.519773516937042    0.993354080130795    0.792147091377036  0.0000
  O3     O3        0.579045483719185    0.217251697135161    0.127761124967757  0.0000
  O1     O1        0.912584296435982    0.797253587579053    0.133463845490688  0.0000
  O1     O1        0.411332799000026    0.226380772602763    0.888190975262979  0.0000
  O3     O3        0.097726006633995    0.801775021707929    0.898525666746433  0.0000
  O1     O1        0.374099915141560    0.888784997785923    0.883558464573045  0.0000
  O3     O3        0.126158731823208    0.168278332437172    0.896164472839651  0.0000
  O3     O3        0.623490474809388    0.896830377202859    0.125754880689140  0.0000
  O1     O1        0.875332241718575    0.138202717678847    0.139715859685677  0.0000
  O3     O3        0.485270933536873    0.980681044537970    0.050193008028601  0.0000
  O1     O1        0.981657018939607    0.030106419179810    0.962394063249711  0.0000
  O1     O1        0.160495365315540    0.484125285964014    0.339506920323142  0.0000
  O1     O1        0.343151851230275    0.543734119812254    0.344719874638689  0.0000
  O1     O1        0.839798423000274    0.480474884485401    0.677960359009931  0.0000
  O1     O1        0.655004667418660    0.535098470937175    0.671930509136643  0.0000
  O1     O1        0.268851656722422    0.233492681648707    0.298809343431345  0.0000
  O1     O1        0.236224039191440    0.794311220790834    0.293963770215989  0.0000
  O1     O1        0.733518310435266    0.233318460972415    0.738080440434298  0.0000
  O1     O1        0.762935775025948    0.785147122602891    0.724596421904985  0.0000
  O3     O3        0.144299484489724    0.261674535410834    0.132611761726550  0.0000
  O1     O1        0.362192207003158    0.757245708621955    0.133695070096971  0.0000
  O1     O1        0.858745074454219    0.275773527955538    0.895650741325252  0.0000
  O1     O1        0.637568077075139    0.742957272364136    0.883316079271224  0.0000
  O1     O1        0.878938854771617    0.676624755594131    0.890199127527094  0.0000
  O1     O1        0.613180416861384    0.341533802804291    0.886307766688576  0.0000
  O3     O3        0.118219742107048    0.699415195051376    0.132340656903755  0.0000
  O1     O1        0.381347833306425    0.342907546642949    0.132888171856443  0.0000
  O1     O1        0.650511660305127    0.539824000414711    0.099069626542491  0.0000
  O1     O1        0.838292058727457    0.482998752633361    0.107933983735804  0.0000
  O1     O1        0.347730979769906    0.545725808098100    0.918672192201980  0.0000
  O2     O2        0.158442536488344    0.492215162848244    0.949873046213610  0.0000
  O1     O1        0.730494199553244    0.237992074182967    0.048339778164304  0.0000
  O1     O1        0.762389049218521    0.784167114950352    0.043221667172706  0.0000
  O3     O3        0.260326971536682    0.253082892689583    0.978425278859440  0.0000
  O3     O3        0.233533449860478    0.777052205385445    0.986553853378303  0.0000
