data_c01170.vasp
_audit_creation_method             Generated by GULP
_audit_author_name                 Salvador R. G. Balestra
_symmetry_space_group_name_H-M     'P 1             '
_symmetry_Int_Tables_number        1

loop_
_symmetry_equiv_pos_site_id
_symmetry_equiv_pos_as_xyz
_cell_length_a                       17.5951
_cell_length_b                        7.8360
_cell_length_c                       10.1805
_cell_angle_alpha                   89.0429
_cell_angle_beta                    89.8395
_cell_angle_gamma                   91.6054

loop_
_atom_site_label
_atom_site_type_symbol
_atom_site_fract_x
_atom_site_fract_y
_atom_site_fract_z
_atom_site_charge
  Ge     Ge        0.052090000000021    0.000000000000000    0.372269999999958  0.0000
  Ge     Ge        0.445756377368861    0.061891090141305    0.355468774643603  0.0000
  Ge     Ge        0.944199222057109    0.068407259100579    0.617262699959205  0.0000
  Ge     Ge        0.938570657520441    0.054750509040969    0.129891149742879  0.0000
  Ge     Ge        0.450023047200476    0.069847870100950    0.862005863991708  0.0000
  Ge     Ge        0.043827752736829    0.004099473107991    0.874742074884913  0.0000
  Ge     Ge        0.172914173124195    0.289396736610610    0.254032264908716  0.0000
  Ge     Ge        0.326878067784159    0.764992970494930    0.252530445770068  0.0000
  Ge     Ge        0.844975731968674    0.378299221477123    0.684419677085970  0.0000
  Ge     Ge        0.638467269556710    0.710843601525223    0.687422079919897  0.0000
  Ge     Ge        0.821304027911704    0.781541161404072    0.692764749231147  0.0000
  Ge     Ge        0.664270788287519    0.308204428501362    0.684186549217553  0.0000
  Ge     Ge        0.145156047703450    0.688410656912720    0.257580296766343  0.0000
  Ge     Ge        0.820792689796900    0.767661622163088    0.009288972108681  0.0000
  Ge     Ge        0.349382027320390    0.378230612524904    0.931867682786043  0.0000
  Ge     Ge        0.145791707534449    0.693873770738845    0.935129531959217  0.0000
  Ge     Ge        0.325305020716161    0.782453287591786    0.934011473415296  0.0000
  Ge     Ge        0.170456856797472    0.291310509633964    0.935415578808097  0.0000
  Ge     Ge        0.637110962984282    0.696002394365716    0.001018998186407  0.0000
  Ge     Ge        0.841984228744397    0.366189927915441    0.006231045000333  0.0000
  Si     Si        0.548601089209509    0.023160845453547    0.606320050633181  0.0000
  Si     Si        0.551197729449801    0.009748587603688    0.112526676587335  0.0000
  Si     Si        0.350267272751963    0.369753064814385    0.244554837470683  0.0000
  Si     Si        0.662714305942966    0.301382324753332    0.998463456748892  0.0000
  O1     O1        0.130682540482651    0.129895796895850    0.346060418372812  0.0000
  O1     O1        0.377385184038850    0.904086009496180    0.348796423304447  0.0000
  O1     O1        0.910525688387602    0.270262785344911    0.595011337141008  0.0000
  O3     O3        0.580643283458295    0.835058606240661    0.588557812184002  0.0000
  O1     O1        0.870133867720736    0.924223599559073    0.593683042283679  0.0000
  O3     O3        0.615413844976057    0.165901426995758    0.586463544098065  0.0000
  O1     O1        0.077105769406979    0.794489500497513    0.342390723982774  0.0000
  O3     O3        0.411269606770386    0.262158330745664    0.324688008350969  0.0000
  O1     O1        0.024671393236805    0.022712987533417    0.533902880404229  0.0000
  O3     O3        0.476867711657031    0.059865889421501    0.517283502784317  0.0000
  O1     O1        0.971440031413678    0.055616087503018    0.288803978035762  0.0000
  O3     O3        0.525905270510129    0.027080618711890    0.262550993779846  0.0000
  O1     O1        0.967145787323465    0.048954621728991    0.782530423500174  0.0000
  O3     O3        0.524802561794569    0.038134593289458    0.759764834145916  0.0000
  O2     O2        0.618493788052152    0.147759102388286    0.076028214639381  0.0000
  O1     O1        0.863872104716571    0.912338470853589    0.110148053220249  0.0000
  O1     O1        0.416521020564566    0.272910826861013    0.846201219303785  0.0000
  O1     O1        0.079260431114344    0.804414484652750    0.849400111248990  0.0000
  O1     O1        0.376007180363111    0.925529243135940    0.838423869423520  0.0000
  O1     O1        0.117064014428508    0.151604746914603    0.846364772984902  0.0000
  O3     O3        0.577909385759552    0.816752379822627    0.095130018576517  0.0000
  O1     O1        0.906278219613371    0.255255045314818    0.094890322324575  0.0000
  O3     O3        0.478046109118904    0.044703607739582    0.024155139513931  0.0000
  O1     O1        0.016099699842242    0.005853294724950    0.037630643178366  0.0000
  O1     O1        0.153515530063915    0.484245409928818    0.319273937999271  0.0000
  O3     O3        0.339703106150249    0.554979388592353    0.305817311347211  0.0000
  O1     O1        0.834616099252073    0.581633958842032    0.628362672322096  0.0000
  O1     O1        0.648551895243604    0.512078482669372    0.624903159385724  0.0000
  O3     O3        0.270318547694774    0.263649391434011    0.247760296631351  0.0000
  O1     O1        0.231194907164880    0.798308577202558    0.264856115689415  0.0000
  O1     O1        0.758820991976333    0.267478302179559    0.676909765898738  0.0000
  O1     O1        0.725741167559959    0.815228930501819    0.697331688066321  0.0000
  O1     O1        0.139559071379811    0.276838726698836    0.096240356171998  0.0000
  O1     O1        0.356571140001726    0.795422363227174    0.093842431227399  0.0000
  O1     O1        0.872335380331252    0.383824724861152    0.846466860847609  0.0000
  O1     O1        0.602036200660664    0.692638506769725    0.844282105759151  0.0000
  O1     O1        0.855732954476117    0.788640933700483    0.851465134486524  0.0000
  O3     O3        0.635754656272820    0.304965923952220    0.847730911394879  0.0000
  O1     O1        0.118369279719877    0.668784059014524    0.096899815373326  0.0000
  O3     O3        0.376868909582015    0.397547380037491    0.094823304366496  0.0000
  O3     O3        0.644878332758518    0.486103340909045    0.058102723584755  0.0000
  O1     O1        0.836935927833106    0.565764514236040    0.069712808470518  0.0000
  O1     O1        0.337688936603401    0.579930327972094    0.873212606826717  0.0000
  O1     O1        0.158278532642878    0.495955976417111    0.873664109881174  0.0000
  O3     O3        0.752004973923763    0.267665051668835    0.006600517434889  0.0000
  O1     O1        0.724820940875203    0.794449515616188    0.001879148338552  0.0000
  O1     O1        0.266130569207911    0.256948625702446    0.927795060986774  0.0000
  O1     O1        0.229470741391836    0.814945054853994    0.933103837429913  0.0000
