data_c01135.vasp
_audit_creation_method             Generated by GULP
_audit_author_name                 Salvador R. G. Balestra
_symmetry_space_group_name_H-M     'P 1             '
_symmetry_Int_Tables_number        1

loop_
_symmetry_equiv_pos_site_id
_symmetry_equiv_pos_as_xyz
_cell_length_a                       17.5602
_cell_length_b                        7.8219
_cell_length_c                       10.2187
_cell_angle_alpha                   90.3384
_cell_angle_beta                    91.0739
_cell_angle_gamma                   91.5316

loop_
_atom_site_label
_atom_site_type_symbol
_atom_site_fract_x
_atom_site_fract_y
_atom_site_fract_z
_atom_site_charge
  Ge     Ge        0.052090000000021    0.000000000000000    0.372269999999958  0.0000
  Ge     Ge        0.447099346678054    0.058841549250536    0.384898005574019  0.0000
  Ge     Ge        0.943691517651241    0.047907673588271    0.624207149588653  0.0000
  Ge     Ge        0.550816756011976    0.995065305228222    0.130318033514525  0.0000
  Ge     Ge        0.445269244769428    0.051718809456360    0.871938082068010  0.0000
  Ge     Ge        0.170080661091364    0.294811429693124    0.302439272518168  0.0000
  Ge     Ge        0.324679651299822    0.774317003843731    0.299539286960334  0.0000
  Ge     Ge        0.850230370330391    0.363024599914472    0.733590660124682  0.0000
  Ge     Ge        0.640134352104180    0.686048306770256    0.745325515326625  0.0000
  Ge     Ge        0.822153979558408    0.762752187211808    0.732447437758620  0.0000
  Ge     Ge        0.667729386831356    0.283912757949367    0.741065185665492  0.0000
  Ge     Ge        0.351333996158053    0.373148529303628    0.308970466188559  0.0000
  Ge     Ge        0.674470321138784    0.284451952011981    0.058469742944658  0.0000
  Ge     Ge        0.833182269870368    0.767137519829951    0.049873442558748  0.0000
  Ge     Ge        0.349504479725081    0.362611163231893    0.988714805048054  0.0000
  Ge     Ge        0.141628194899807    0.688148657433377    0.987298545731767  0.0000
  Ge     Ge        0.323123743735710    0.767918879233001    0.982171486004606  0.0000
  Ge     Ge        0.166851628311970    0.282822812685236    0.984580508055144  0.0000
  Ge     Ge        0.652391848834734    0.687066473208238    0.064233431946443  0.0000
  Ge     Ge        0.855382263221636    0.364398094967819    0.052111757672884  0.0000
  Si     Si        0.549853903502761    0.996028401580850    0.631391568679213  0.0000
  Si     Si        0.953437251580325    0.057919545797980    0.116751223178536  0.0000
  Si     Si        0.050105259444977    0.995073001876045    0.872723317671906  0.0000
  Si     Si        0.147501018282882    0.690202706642040    0.297140681953805  0.0000
  O1     O1        0.120064771773217    0.158519094026811    0.401339640365697  0.0000
  O1     O1        0.369527454793839    0.921689105547352    0.399351667165416  0.0000
  O1     O1        0.916333013536253    0.253856687982523    0.647453372992584  0.0000
  O3     O3        0.570945285794559    0.802793789105584    0.665955170223632  0.0000
  O1     O1        0.865752302441019    0.915250772890565    0.639529241541263  0.0000
  O3     O3        0.622079016585676    0.122624824046702    0.652207049114122  0.0000
  O3     O3        0.090625171408683    0.798713351010190    0.383714107670200  0.0000
  O1     O1        0.416479978902991    0.263287246279175    0.401450523374127  0.0000
  O1     O1        0.975371082423669    0.021712156235528    0.467556630187178  0.0000
  O3     O3        0.524469621387349    0.006074367088954    0.479403297011721  0.0000
  O3     O3        0.024290162005963    0.023083708368962    0.209278850668770  0.0000
  O1     O1        0.475306350912484    0.034922917555098    0.224476881917850  0.0000
  O3     O3        0.020255987219486    0.996050505225623    0.724220743675818  0.0000
  O3     O3        0.476966938835603    0.054295465969586    0.711961735187155  0.0000
  O1     O1        0.623596231554983    0.145690397115750    0.152379291043153  0.0000
  O3     O3        0.886132491268946    0.917820871475651    0.138274151152759  0.0000
  O1     O1        0.417332730622083    0.255713425305260    0.906076103534261  0.0000
  O3     O3        0.072988214152719    0.802381106156536    0.906238494318965  0.0000
  O1     O1        0.368270523209925    0.913614112295504    0.884952092777241  0.0000
  O3     O3        0.121251212548280    0.126792339000789    0.889554708483677  0.0000
  O1     O1        0.589735726663366    0.797891204189524    0.155703989323981  0.0000
  O3     O3        0.921062836962069    0.246004373904164    0.138912612932957  0.0000
  O1     O1        0.520007018647668    0.993102325449702    0.968749010715415  0.0000
  O2     O2        0.980575118286441    0.050989721202521    0.964966111178091  0.0000
  O3     O3        0.160065813235431    0.504856924390942    0.357522276596076  0.0000
  O1     O1        0.342946003068976    0.576631838895851    0.365064042633474  0.0000
  O1     O1        0.836854177148627    0.561875547300326    0.669105735920549  0.0000
  O1     O1        0.647415225016266    0.483535564993014    0.680593213737826  0.0000
  O1     O1        0.265761105464280    0.259275786345847    0.310056839784832  0.0000
  O3     O3        0.227104840815791    0.798599305865301    0.290762747096879  0.0000
  O1     O1        0.763766525671038    0.253143059011618    0.733977966507157  0.0000
  O1     O1        0.726064100638304    0.794590756353946    0.735527739776064  0.0000
  O1     O1        0.138214441440377    0.269583467336390    0.143546397813781  0.0000
  O1     O1        0.356548124167895    0.788921913202111    0.141391965583178  0.0000
  O1     O1        0.881579283156534    0.389048370428873    0.892481715051436  0.0000
  O1     O1        0.617634380509685    0.661522346434991    0.906052189265885  0.0000
  O1     O1        0.859048865664961    0.774324385551018    0.889145820117411  0.0000
  O1     O1        0.638740030815428    0.271969264053146    0.900218841448398  0.0000
  O3     O3        0.115940098028350    0.664416992975680    0.149243423028085  0.0000
  O1     O1        0.379487915374719    0.383799875861615    0.148972541188709  0.0000
  O1     O1        0.665945630064799    0.487200524129296    0.123778377677209  0.0000
  O1     O1        0.847903322972139    0.566243733113602    0.114602028333580  0.0000
  O1     O1        0.338287849038580    0.563597691200402    0.926732868767220  0.0000
  O1     O1        0.148285265261672    0.484719977867139    0.925838833949259  0.0000
  O1     O1        0.770324711441345    0.249589665345173    0.054343738440568  0.0000
  O1     O1        0.737474329440832    0.802691044267836    0.058392434172673  0.0000
  O1     O1        0.263240792600246    0.252442672631575    0.980868863459843  0.0000
  O1     O1        0.226701479567551    0.798461137253912    0.977712491794830  0.0000
