data_c01192.vasp
_audit_creation_method             Generated by GULP
_audit_author_name                 Salvador R. G. Balestra
_symmetry_space_group_name_H-M     'P 1             '
_symmetry_Int_Tables_number        1

loop_
_symmetry_equiv_pos_site_id
_symmetry_equiv_pos_as_xyz
_cell_length_a                       17.6141
_cell_length_b                        7.8057
_cell_length_c                       10.2128
_cell_angle_alpha                   89.7797
_cell_angle_beta                    89.8613
_cell_angle_gamma                   88.9960

loop_
_atom_site_label
_atom_site_type_symbol
_atom_site_fract_x
_atom_site_fract_y
_atom_site_fract_z
_atom_site_charge
  Ge     Ge        0.052090000000021    0.000000000000000    0.372269999999958  0.0000
  Ge     Ge        0.451560254464791    0.950689721737253    0.408408132644920  0.0000
  Ge     Ge        0.945800362878823    0.964715497056072    0.624056813119029  0.0000
  Ge     Ge        0.951956713452272    0.945160019975533    0.112376709123523  0.0000
  Ge     Ge        0.454388754645115    0.940720370855759    0.906727863203243  0.0000
  Ge     Ge        0.060544603287845    0.999908292537180    0.862633489850356  0.0000
  Ge     Ge        0.149734632278717    0.314546106818184    0.299686510670961  0.0000
  Ge     Ge        0.357134097495847    0.637164422697852    0.292378146239797  0.0000
  Ge     Ge        0.828957846884895    0.260788363124484    0.728895921373612  0.0000
  Ge     Ge        0.671434171790805    0.728101582111559    0.733963366816139  0.0000
  Ge     Ge        0.646755890493899    0.327351179546207    0.724150507771809  0.0000
  Ge     Ge        0.176939351185303    0.721355775125538    0.293145391395730  0.0000
  Ge     Ge        0.328751368642014    0.232510392792876    0.301265766229389  0.0000
  Ge     Ge        0.645639442045451    0.312343828363404    0.041305158861374  0.0000
  Ge     Ge        0.848166528025977    0.635561192666735    0.056397266898228  0.0000
  Ge     Ge        0.329831753577497    0.224234478209237    0.984019007974868  0.0000
  Ge     Ge        0.176813359315303    0.705219445335952    0.976966847630864  0.0000
  Ge     Ge        0.357161243478441    0.624873014246658    0.973103752706955  0.0000
  Ge     Ge        0.669671510061078    0.718114862107567    0.053801854557888  0.0000
  Ge     Ge        0.826565168199541    0.231979853907148    0.043947862904139  0.0000
  Si     Si        0.555160402773465    0.012023840431242    0.656418173340506  0.0000
  Si     Si        0.553306263981806    0.003812502147952    0.159165446113116  0.0000
  Si     Si        0.848444096558062    0.656116643438752    0.741944207417519  0.0000
  Si     Si        0.153067763586780    0.304994152152753    0.988393105051648  0.0000
  O1     O1        0.083467641645805    0.206327477701590    0.389032387591734  0.0000
  O1     O1        0.424132083810701    0.745597645711849    0.379404104989845  0.0000
  O1     O1        0.878298525245359    0.124133778072537    0.628538338542492  0.0000
  O3     O3        0.626177980494337    0.881054499556178    0.638783144978134  0.0000
  O3     O3        0.912341858200750    0.767412452840982    0.672413408201362  0.0000
  O3     O3        0.583885777317788    0.204083276626915    0.634939525446045  0.0000
  O1     O1        0.127758644702603    0.859757728060752    0.392008462334346  0.0000
  O1     O1        0.375353070355434    0.087645841445652    0.399233562455249  0.0000
  O1     O1        0.974618253941284    0.950462637592555    0.462515568244568  0.0000
  O3     O3        0.484916701919441    0.963434039338216    0.567867190351697  0.0000
  O1     O1        0.027023204845269    0.983959193511339    0.208712096146620  0.0000
  O3     O3        0.525466639121814    0.010553689683613    0.308338507582176  0.0000
  O1     O1        0.028290114875390    0.012986751067886    0.704062819179415  0.0000
  O3     O3        0.528698186021912    0.994006112671517    0.808251443771338  0.0000
  O3     O3        0.577864834799448    0.194897912815792    0.120978969516522  0.0000
  O1     O1        0.917019712806391    0.741912627449195    0.136884309362703  0.0000
  O1     O1        0.376992473972359    0.076653729309303    0.890868722659979  0.0000
  O1     O1        0.129276408091453    0.842027079474078    0.873737528461942  0.0000
  O1     O1        0.422404611551982    0.736781418782682    0.883631013442186  0.0000
  O3     O3        0.092999100595158    0.200505461115341    0.905211027282975  0.0000
  O3     O3        0.623017457046726    0.869262421469250    0.147440096957882  0.0000
  O1     O1        0.876903697628582    0.087313573723101    0.135029940996041  0.0000
  O3     O3        0.484139474172408    0.945547921706156    0.068816357227232  0.0000
  O1     O1        0.981354966915510    0.953072223359244    0.951702390038181  0.0000
  O1     O1        0.161902189638592    0.517304700993436    0.353957330576405  0.0000
  O1     O1        0.342801577192668    0.437747766430636    0.357195221862405  0.0000
  O3     O3        0.840101141192924    0.471145797333679    0.675012014099920  0.0000
  O1     O1        0.653303229732971    0.531664482778237    0.665079553623838  0.0000
  O1     O1        0.233137725790319    0.196652058744622    0.305863215817536  0.0000
  O1     O1        0.272922135651892    0.754484506478618    0.293339714631478  0.0000
  O1     O1        0.733456354982904    0.223404403208693    0.723889302651292  0.0000
  O3     O3        0.768532738716199    0.760806146897272    0.734690138332412  0.0000
  O3     O3        0.123126195956876    0.328884619021781    0.135879226353434  0.0000
  O1     O1        0.385954428925652    0.608951367199523    0.133809162780241  0.0000
  O1     O1        0.860589087439704    0.224489630147503    0.885374040664900  0.0000
  O1     O1        0.640393323334389    0.735300176109853    0.893495311158725  0.0000
  O3     O3        0.870111770389167    0.615601770510675    0.891002563598726  0.0000
  O1     O1        0.616601150970264    0.346492865123708    0.883295372936979  0.0000
  O1     O1        0.144534952317973    0.736487903877463    0.133799804253120  0.0000
  O1     O1        0.361259353863017    0.211549150568607    0.143018625185645  0.0000
  O1     O1        0.654637704069716    0.511929816787293    0.109054883436316  0.0000
  O1     O1        0.838252639913513    0.432062920541372    0.112520742101275  0.0000
  O1     O1        0.347586848652141    0.422026109950476    0.915902504650159  0.0000
  O3     O3        0.165306611413079    0.493043823714093    0.928537651384989  0.0000
  O1     O1        0.730395137022084    0.199489685739349    0.041312717988367  0.0000
  O1     O1        0.764902358865512    0.753522077401024    0.065230510008048  0.0000
  O3     O3        0.232389205229481    0.197257963253468    0.988274810096786  0.0000
  O1     O1        0.272452382702772    0.739205290670339    0.971530478088947  0.0000
