data_c01157.vasp
_audit_creation_method             Generated by GULP
_audit_author_name                 Salvador R. G. Balestra
_symmetry_space_group_name_H-M     'P 1             '
_symmetry_Int_Tables_number        1

loop_
_symmetry_equiv_pos_site_id
_symmetry_equiv_pos_as_xyz
_cell_length_a                       17.5896
_cell_length_b                        7.8037
_cell_length_c                       10.2932
_cell_angle_alpha                   89.9962
_cell_angle_beta                    89.9671
_cell_angle_gamma                   91.0662

loop_
_atom_site_label
_atom_site_type_symbol
_atom_site_fract_x
_atom_site_fract_y
_atom_site_fract_z
_atom_site_charge
  Ge     Ge        0.052090000000021    0.000000000000000    0.372269999999958  0.0000
  Ge     Ge        0.452958429254282    0.050710441721961    0.341825012095038  0.0000
  Ge     Ge        0.948796815961428    0.049795544695291    0.627407971526868  0.0000
  Ge     Ge        0.942625368388973    0.040728971951557    0.128579454082598  0.0000
  Ge     Ge        0.449130101478231    0.043747119287679    0.840520398921949  0.0000
  Ge     Ge        0.051926443091645    0.982070106777436    0.881822016409344  0.0000
  Ge     Ge        0.176148685198479    0.283077760740948    0.266240111722317  0.0000
  Ge     Ge        0.328129716388577    0.771693055713073    0.258250892789686  0.0000
  Ge     Ge        0.848587027969400    0.362423195032358    0.695165732718966  0.0000
  Ge     Ge        0.642838831672988    0.689315718311331    0.709019992994723  0.0000
  Ge     Ge        0.824462385902999    0.767899948434452    0.705900615445367  0.0000
  Ge     Ge        0.668479037581657    0.285967003490851    0.696514354136672  0.0000
  Ge     Ge        0.148005968732237    0.686196938025610    0.253989079472190  0.0000
  Ge     Ge        0.355545980568634    0.365359675815662    0.266667677414854  0.0000
  Ge     Ge        0.669085069369333    0.271063535534758    0.012428298973378  0.0000
  Ge     Ge        0.826730543581919    0.744593021175980    0.018711795963430  0.0000
  Ge     Ge        0.151286166502993    0.666455608023892    0.935874817119686  0.0000
  Ge     Ge        0.331219005385600    0.749715213921828    0.943827451482092  0.0000
  Ge     Ge        0.177755130282832    0.267365979989353    0.951031271836566  0.0000
  Ge     Ge        0.645174959942288    0.671043816707045    0.023654448646031  0.0000
  Si     Si        0.552249091230867    0.001869646046236    0.594056726390716  0.0000
  Si     Si        0.552205621102023    0.983635721637483    0.088511689990140  0.0000
  Si     Si        0.354574724638079    0.350189762127866    0.957933352640720  0.0000
  Si     Si        0.846816124944219    0.345471012118537    0.005432994840485  0.0000
  O1     O1        0.127960592656774    0.138844868588625    0.361459926103894  0.0000
  O1     O1        0.376084289739520    0.913780293957719    0.355777350427457  0.0000
  O1     O1        0.915904896072103    0.254656486158026    0.609453222877690  0.0000
  O3     O3        0.575185689429784    0.810104047183597    0.631977772583214  0.0000
  O1     O1        0.872639967372151    0.910057404840152    0.609374695511916  0.0000
  O3     O3        0.623095435171058    0.132531861072700    0.603115751009670  0.0000
  O1     O1        0.077981466213467    0.796145096078417    0.331383836211674  0.0000
  O1     O1        0.422700214087910    0.257390575308796    0.353566012452825  0.0000
  O1     O1        0.024198735087848    0.001393089032132    0.533285710673927  0.0000
  O3     O3        0.525012009891642    0.001308195986438    0.445160124156708  0.0000
  O1     O1        0.973638685476776    0.061969219646934    0.286231847852231  0.0000
  O3     O3        0.484187075486587    0.026674792935915    0.182475681470680  0.0000
  O1     O1        0.977278015768373    0.033643243651048    0.787813346629967  0.0000
  O3     O3        0.482814308666415    0.063653847340807    0.683153690330720  0.0000
  O3     O3        0.623087103583032    0.117013765341999    0.104094406422804  0.0000
  O1     O1        0.874788861900789    0.880092136118779    0.121030395963892  0.0000
  O3     O3        0.415959515643399    0.244666365119792    0.878381897832511  0.0000
  O1     O1        0.084405781559482    0.778604066620202    0.852682637047168  0.0000
  O1     O1        0.380378656275468    0.885936212667108    0.842835474877241  0.0000
  O1     O1        0.130257772160484    0.116910877100122    0.862253358342852  0.0000
  O3     O3        0.582268430676225    0.792564768130406    0.112663010097089  0.0000
  O3     O3        0.908692932913397    0.238228450683319    0.082005797955716  0.0000
  O3     O3        0.524305312642163    0.992996875444104    0.939130830047261  0.0000
  O1     O1        0.021970228686392    0.990691889474190    0.041356954745311  0.0000
  O1     O1        0.161232719021509    0.488155938474976    0.321909826945927  0.0000
  O1     O1        0.343329180795317    0.568720223069383    0.319988808116552  0.0000
  O1     O1        0.838618732607494    0.566304983864939    0.641444228334915  0.0000
  O1     O1        0.652739132074083    0.490423310711303    0.639819105877842  0.0000
  O1     O1        0.272010841939497    0.247892014215225    0.273517188987686  0.0000
  O1     O1        0.231990194926682    0.804767480454354    0.259201853554989  0.0000
  O1     O1        0.763942994194241    0.249439554126709    0.687282707700462  0.0000
  O1     O1        0.728341770974422    0.800328064525150    0.708504998743471  0.0000
  O1     O1        0.145157411190155    0.259266046208679    0.108601948547957  0.0000
  O1     O1        0.360713267014750    0.785329726066162    0.100448343509485  0.0000
  O3     O3        0.873780633704829    0.374900201235738    0.858154098849584  0.0000
  O1     O1        0.615170843129961    0.650341783639745    0.865505465456530  0.0000
  O1     O1        0.858891910671002    0.779017249207536    0.863029429324744  0.0000
  O1     O1        0.637896799566144    0.266550717728866    0.854503326668369  0.0000
  O1     O1        0.123718927627563    0.648120021865099    0.095961112193866  0.0000
  O3     O3        0.382768342153453    0.378326039274512    0.104649935006772  0.0000
  O1     O1        0.651922759811319    0.467406140739027    0.082692402023942  0.0000
  O3     O3        0.837442125220966    0.532616007258662    0.067843937690877  0.0000
  O3     O3        0.342956857749174    0.537039720246490    0.896759863230751  0.0000
  O1     O1        0.160904394957596    0.463084790069505    0.879328554984600  0.0000
  O3     O3        0.766561700560133    0.241129488225920    0.008960036498993  0.0000
  O1     O1        0.731085079599090    0.779435385707161    0.022585465104534  0.0000
  O3     O3        0.275446773254111    0.241189217148136    0.956964627899749  0.0000
  O1     O1        0.235622272369449    0.782898200030792    0.933250925344913  0.0000
