data_c01197.vasp
_audit_creation_method             Generated by GULP
_audit_author_name                 Salvador R. G. Balestra
_symmetry_space_group_name_H-M     'P 1             '
_symmetry_Int_Tables_number        1

loop_
_symmetry_equiv_pos_site_id
_symmetry_equiv_pos_as_xyz
_cell_length_a                       17.6128
_cell_length_b                        7.8188
_cell_length_c                       10.2230
_cell_angle_alpha                   88.9446
_cell_angle_beta                    89.6069
_cell_angle_gamma                   89.0428

loop_
_atom_site_label
_atom_site_type_symbol
_atom_site_fract_x
_atom_site_fract_y
_atom_site_fract_z
_atom_site_charge
  Ge     Ge        0.052090000000021    0.000000000000000    0.372269999999958  0.0000
  Ge     Ge        0.453510271049754    0.955150546709560    0.406729406210625  0.0000
  Ge     Ge        0.945081670345705    0.964034079609121    0.623139597115194  0.0000
  Ge     Ge        0.951144416636273    0.938798823807840    0.114416208718936  0.0000
  Ge     Ge        0.455957674986367    0.950541898313150    0.907889462637588  0.0000
  Ge     Ge        0.058023728312365    0.007137486566549    0.862379213039292  0.0000
  Ge     Ge        0.149767947594737    0.318534105536302    0.303511633596021  0.0000
  Ge     Ge        0.358886055965951    0.641256705811668    0.295729216888130  0.0000
  Ge     Ge        0.830171203451645    0.260397985573897    0.728594896537048  0.0000
  Ge     Ge        0.670045359795005    0.725439160506777    0.738083340320839  0.0000
  Ge     Ge        0.648627943081856    0.322221338792470    0.726799960335698  0.0000
  Ge     Ge        0.178196626105505    0.722281420904015    0.297402558862504  0.0000
  Ge     Ge        0.330073752099432    0.237908768822391    0.300900727840724  0.0000
  Ge     Ge        0.847244018912677    0.629458140533237    0.062009815173913  0.0000
  Ge     Ge        0.330571347050316    0.232399860891716    0.983424586624488  0.0000
  Ge     Ge        0.179073942217348    0.722477297759663    0.980071613713857  0.0000
  Ge     Ge        0.358308630931679    0.634924383694763    0.977868583279813  0.0000
  Ge     Ge        0.150718383218782    0.316817210027133    0.985014344711112  0.0000
  Ge     Ge        0.666756900595171    0.697989762819800    0.056499949933902  0.0000
  Ge     Ge        0.828849159576168    0.229881805827346    0.042048673784824  0.0000
  Si     Si        0.556582725483023    0.011881587074615    0.655226648444653  0.0000
  Si     Si        0.556740565123686    0.994215538063725    0.158543932116924  0.0000
  Si     Si        0.847113407652247    0.656455068858626    0.746544768938859  0.0000
  Si     Si        0.649709780714802    0.299937448906790    0.035222162821256  0.0000
  O1     O1        0.084350424217370    0.203910756308265    0.392723882749790  0.0000
  O1     O1        0.426086175549679    0.750197972160144    0.380310168131563  0.0000
  O1     O1        0.879648061211820    0.127565776585373    0.627009157289167  0.0000
  O3     O3        0.626348321146162    0.877582668686334    0.639114471881508  0.0000
  O3     O3        0.910412063980183    0.768884773903425    0.675166012529842  0.0000
  O3     O3        0.586067463264456    0.204044570370189    0.635856655842821  0.0000
  O1     O1        0.127782108843103    0.860516825977913    0.393194680134245  0.0000
  O1     O1        0.376737964887628    0.090031187024091    0.397315233470601  0.0000
  O1     O1        0.974091368734025    0.948053109791189    0.462173873837999  0.0000
  O3     O3        0.486628409397947    0.968686622627065    0.565755125906586  0.0000
  O1     O1        0.025442575703002    0.986357400113358    0.209368032637336  0.0000
  O3     O3        0.527878860176710    0.016337245840411    0.305980938270514  0.0000
  O1     O1        0.027430674201627    0.008949472392368    0.703139946543268  0.0000
  O3     O3        0.530913573479721    0.992975252524848    0.807190118258620  0.0000
  O2     O2        0.593340694513818    0.173861502855903    0.112756021493785  0.0000
  O1     O1        0.915500269082131    0.736844124713996    0.141953987692329  0.0000
  O1     O1        0.381472743639979    0.093108879287836    0.889278588796139  0.0000
  O1     O1        0.134225326300471    0.869595805339046    0.880952175299901  0.0000
  O1     O1        0.422955043409033    0.747631223365322    0.886714497874582  0.0000
  O1     O1        0.083476481130823    0.211852962704090    0.899610841039845  0.0000
  O3     O3        0.616163698923860    0.835924263638936    0.154546284027948  0.0000
  O1     O1        0.873918308131539    0.076315535223528    0.132706101806667  0.0000
  O3     O3        0.484622906271737    0.956573051510967    0.070082132590285  0.0000
  O1     O1        0.981429288456797    0.944386876601794    0.954178954055232  0.0000
  O1     O1        0.163165821987270    0.518600886372785    0.360767649945603  0.0000
  O1     O1        0.344865589650117    0.440041455344351    0.359649445531195  0.0000
  O3     O3        0.839735058667293    0.473388612028467    0.679032689453451  0.0000
  O1     O1        0.652357770778690    0.529015221034665    0.671818846277935  0.0000
  O1     O1        0.234232102536391    0.203297035660141    0.303168828074354  0.0000
  O1     O1        0.274174711513418    0.756384161935013    0.298349644828805  0.0000
  O1     O1        0.735103546798585    0.219921299878788    0.720314211064592  0.0000
  O3     O3        0.766942120720270    0.759402942140772    0.739960829386608  0.0000
  O1     O1        0.120460168199953    0.338233245387556    0.143700650921428  0.0000
  O1     O1        0.388182334891729    0.614614813376845    0.137440582032687  0.0000
  O1     O1        0.863528607938324    0.221691080547130    0.883884253971226  0.0000
  O1     O1        0.638695377713195    0.731654515798168    0.897703847425548  0.0000
  O3     O3        0.868294088337859    0.616296855759379    0.895979774127399  0.0000
  O3     O3        0.619528921592420    0.333889674835791    0.889312064874019  0.0000
  O1     O1        0.145949404795896    0.737891053319878    0.138419401510812  0.0000
  O1     O1        0.361933890201971    0.220518304337485    0.142346448004655  0.0000
  O3     O3        0.654317917624663    0.483553672317059    0.102522765327008  0.0000
  O1     O1        0.844474517459008    0.422249281847207    0.115490005403573  0.0000
  O1     O1        0.344237149434353    0.436120776642408    0.919152444862818  0.0000
  O1     O1        0.164462118140534    0.519118037741042    0.923117328568248  0.0000
  O3     O3        0.731636197277772    0.206720786855876    0.029069992541782  0.0000
  O1     O1        0.761292046107322    0.735155295329520    0.075721336467078  0.0000
  O1     O1        0.234587852607316    0.198749649059722    0.981840112995594  0.0000
  O1     O1        0.274975828293216    0.754345200374292    0.980899340015525  0.0000
