data_c01172.vasp
_audit_creation_method             Generated by GULP
_audit_author_name                 Salvador R. G. Balestra
_symmetry_space_group_name_H-M     'P 1             '
_symmetry_Int_Tables_number        1

loop_
_symmetry_equiv_pos_site_id
_symmetry_equiv_pos_as_xyz
_cell_length_a                       17.5430
_cell_length_b                        7.8523
_cell_length_c                       10.1952
_cell_angle_alpha                   90.4836
_cell_angle_beta                    89.2306
_cell_angle_gamma                   87.8370

loop_
_atom_site_label
_atom_site_type_symbol
_atom_site_fract_x
_atom_site_fract_y
_atom_site_fract_z
_atom_site_charge
  Ge     Ge        0.052090000000021    0.000000000000000    0.372269999999958  0.0000
  Ge     Ge        0.445909459253153    0.944171755377613    0.366845125259598  0.0000
  Ge     Ge        0.946431333107971    0.938887394061901    0.622077061441111  0.0000
  Ge     Ge        0.936375615769801    0.950769559711409    0.136307471593304  0.0000
  Ge     Ge        0.449917187695159    0.942519974269791    0.867743932637873  0.0000
  Ge     Ge        0.043374867375423    0.007526119541437    0.880960854119086  0.0000
  Ge     Ge        0.140949709805490    0.318463581378497    0.256511865010618  0.0000
  Ge     Ge        0.349706597143695    0.633312825867384    0.258385269393698  0.0000
  Ge     Ge        0.823576089087260    0.228799266851262    0.699977691734742  0.0000
  Ge     Ge        0.664693822593258    0.704404909869106    0.690600650283351  0.0000
  Ge     Ge        0.846071798716647    0.632068704452594    0.692151227803378  0.0000
  Ge     Ge        0.640180272582006    0.302972675735467    0.693977957957791  0.0000
  Ge     Ge        0.323847869453663    0.235505688938835    0.257912572230951  0.0000
  Ge     Ge        0.635106402953450    0.315623242767946    0.006669280313123  0.0000
  Ge     Ge        0.841498770935527    0.640938978203257    0.013257201675611  0.0000
  Ge     Ge        0.324558743327780    0.231863263641806    0.938843253733910  0.0000
  Ge     Ge        0.171110171771710    0.717750786643639    0.944369415568465  0.0000
  Ge     Ge        0.351561915525115    0.632577162497185    0.938840808061831  0.0000
  Ge     Ge        0.143054275867550    0.317348171396564    0.938677290398111  0.0000
  Ge     Ge        0.819799860446677    0.240661201357258    0.015848327430352  0.0000
  Si     Si        0.550065528958236    0.994340221901782    0.613838829431479  0.0000
  Si     Si        0.549078153602195    0.001231379874274    0.117973537442548  0.0000
  Si     Si        0.169946795920595    0.710301215228743    0.255858107833536  0.0000
  Si     Si        0.661095616455553    0.708125366002192    0.004398312731228  0.0000
  O1     O1        0.077073203834647    0.206251550192398    0.347239649299816  0.0000
  O1     O1        0.413570475200564    0.743244102872377    0.347867732860533  0.0000
  O1     O1        0.872898259190869    0.087244080988221    0.600082029999155  0.0000
  O3     O3        0.615706800359765    0.847320238763684    0.592411230449380  0.0000
  O1     O1        0.911778041518761    0.739118920928825    0.601763845842868  0.0000
  O3     O3        0.583409441818448    0.180001381266229    0.594982293099049  0.0000
  O3     O3        0.127806912759563    0.859188435484763    0.339884441049245  0.0000
  O1     O1        0.370071421396925    0.083424875813231    0.349017880414773  0.0000
  O1     O1        0.027168406657712    0.977123080591239    0.535404568828367  0.0000
  O3     O3        0.477405870567722    0.964708315245627    0.526639953595243  0.0000
  O1     O1        0.969132053224043    0.953022353946089    0.294366359731917  0.0000
  O3     O3        0.524174899214510    0.983156462055779    0.268503556412204  0.0000
  O1     O1        0.968882913814576    0.958799877181181    0.786658821488468  0.0000
  O3     O3        0.526010970630620    0.978456948543228    0.767395221513076  0.0000
  O3     O3        0.575144571988286    0.194030388935563    0.099702482181532  0.0000
  O1     O1        0.904646499259479    0.750918514492905    0.102540902686288  0.0000
  O1     O1        0.375237899823414    0.086791060813499    0.844254206878405  0.0000
  O1     O1        0.119073215817443    0.862362558065310    0.858134127375684  0.0000
  O1     O1        0.417275287364567    0.740779699873668    0.849706683961298  0.0000
  O1     O1        0.078094764156978    0.206358106430194    0.851748136538869  0.0000
  O2     O2        0.617074897304117    0.863075684395468    0.081395993518308  0.0000
  O1     O1        0.860597680110761    0.092305021934123    0.116614463536200  0.0000
  O3     O3        0.476278994071775    0.965739576660083    0.030483467718824  0.0000
  O1     O1        0.013744351134882    0.001894275577368    0.042759927390230  0.0000
  O3     O3        0.151836254365322    0.525183900522994    0.314419040772557  0.0000
  O1     O1        0.341785720579044    0.434109920146562    0.321103674049006  0.0000
  O1     O1        0.836401536093665    0.429544745759558    0.636767580849292  0.0000
  O1     O1        0.650060086008582    0.501726036870041    0.631008212455129  0.0000
  O1     O1        0.227437418428074    0.209355538390489    0.262497653540947  0.0000
  O3     O3        0.260194387611396    0.736891376671416    0.257007023117661  0.0000
  O1     O1        0.727539852595436    0.196978873635604    0.704678216705893  0.0000
  O1     O1        0.759482800756032    0.743988485331916    0.684244303192545  0.0000
  O1     O1        0.110263930806318    0.329427408365847    0.098865864227214  0.0000
  O1     O1        0.380928727404159    0.618355536937161    0.098755369051052  0.0000
  O1     O1        0.856736568013599    0.219472885472546    0.858774744890709  0.0000
  O3     O3        0.634890122313515    0.706329189924708    0.853843734341425  0.0000
  O1     O1        0.873101225066991    0.626039848053831    0.853750147204329  0.0000
  O1     O1        0.601582115633946    0.321528029276154    0.849784095993181  0.0000
  O3     O3        0.140221666839246    0.718616463108991    0.107328371083814  0.0000
  O1     O1        0.355429547640746    0.223850292678036    0.098256237001014  0.0000
  O3     O3        0.641620056544816    0.524402169695710    0.064410119921171  0.0000
  O1     O1        0.836563417137925    0.440761810299959    0.076098810696050  0.0000
  O1     O1        0.338837556319805    0.433610899831354    0.877946731592684  0.0000
  O1     O1        0.155899072592905    0.516679101680851    0.880652375088165  0.0000
  O1     O1        0.723497759356896    0.217740901744794    0.007336272206938  0.0000
  O3     O3        0.750651855259792    0.738282175943130    0.012654239191348  0.0000
  O1     O1        0.228565367687514    0.200712109850343    0.938168581438190  0.0000
  O1     O1        0.266499861737315    0.751598937787714    0.937221789619870  0.0000
