data_c01112.vasp
_audit_creation_method             Generated by GULP
_audit_author_name                 Salvador R. G. Balestra
_symmetry_space_group_name_H-M     'P 1             '
_symmetry_Int_Tables_number        1

loop_
_symmetry_equiv_pos_site_id
_symmetry_equiv_pos_as_xyz
_cell_length_a                       17.6905
_cell_length_b                        7.7979
_cell_length_c                       10.0586
_cell_angle_alpha                   87.8060
_cell_angle_beta                    90.2643
_cell_angle_gamma                   89.3131

loop_
_atom_site_label
_atom_site_type_symbol
_atom_site_fract_x
_atom_site_fract_y
_atom_site_fract_z
_atom_site_charge
  Ge     Ge        0.052090000000021    0.000000000000000    0.372269999999958  0.0000
  Ge     Ge        0.454326732764144    0.959891560548398    0.393345521249838  0.0000
  Ge     Ge        0.948136007988675    0.980075257024422    0.626546942090959  0.0000
  Ge     Ge        0.561720700306542    0.003675394983397    0.137909328298206  0.0000
  Ge     Ge        0.455912323704611    0.981192083391419    0.880638696516552  0.0000
  Ge     Ge        0.069169431511980    0.037191847573672    0.854938095252677  0.0000
  Ge     Ge        0.151352563275808    0.321933411211062    0.300571682179994  0.0000
  Ge     Ge        0.356812999517655    0.648716614886689    0.319002922328490  0.0000
  Ge     Ge        0.836145593268865    0.278496350665752    0.725275128994941  0.0000
  Ge     Ge        0.678692901341713    0.744169097559479    0.742594404151226  0.0000
  Ge     Ge        0.652026481258447    0.339098730060600    0.740470792696919  0.0000
  Ge     Ge        0.178913949438265    0.728449096177292    0.305647863167106  0.0000
  Ge     Ge        0.330755372785543    0.242299250142123    0.311841111098420  0.0000
  Ge     Ge        0.666756866502773    0.310012341803273    0.061019558878056  0.0000
  Ge     Ge        0.858422418419592    0.639617851998293    0.063743816579674  0.0000
  Ge     Ge        0.338099282961920    0.269135520989628    0.990853157813829  0.0000
  Ge     Ge        0.187526076605006    0.750422892661696    0.981594675039179  0.0000
  Ge     Ge        0.158152627021748    0.347585916306874    0.976968395190806  0.0000
  Ge     Ge        0.686007125197666    0.718552960843349    0.074064490002088  0.0000
  Ge     Ge        0.846962264167228    0.238915499932994    0.042644003205380  0.0000
  Si     Si        0.559912057963292    0.032353918093873    0.632518251462180  0.0000
  Si     Si        0.965174507482185    0.945746425318299    0.102997472371847  0.0000
  Si     Si        0.850306579316267    0.667448790721929    0.739326287534396  0.0000
  Si     Si        0.362608202989723    0.668212708200896    0.001543446738448  0.0000
  O1     O1        0.084454946246046    0.205432838217753    0.386172961430368  0.0000
  O1     O1        0.421768474430412    0.754026859860976    0.412209902089102  0.0000
  O1     O1        0.880755533068914    0.137486301895992    0.623457617688477  0.0000
  O3     O3        0.632480569926994    0.913050453613983    0.663097768443382  0.0000
  O3     O3        0.920022437871110    0.786433163234617    0.700781535594992  0.0000
  O3     O3        0.583914951497101    0.226849947780628    0.656217698766778  0.0000
  O1     O1        0.126488872630860    0.859347482076102    0.402062816258758  0.0000
  O1     O1        0.380174776451655    0.099790592219381    0.413588565795845  0.0000
  O1     O1        0.974087642136154    0.952827006808262    0.463174663408869  0.0000
  O3     O3        0.534552229531416    0.008879707065330    0.480643294718127  0.0000
  O3     O3        0.032351077231107    0.974603491956985    0.203788444120307  0.0000
  O1     O1        0.482389985970676    0.980273865074018    0.228920463175942  0.0000
  O1     O1        0.033516608465283    0.031914644643101    0.696759463651233  0.0000
  O3     O3        0.486347898355332    0.976705646200248    0.716791700551833  0.0000
  O1     O1        0.609351797466779    0.191002363843853    0.162684126481983  0.0000
  O3     O3        0.935858012758326    0.749713962760711    0.115138327467081  0.0000
  O1     O1        0.386804546480603    0.135659767706458    0.890046051411518  0.0000
  O1     O1        0.147492670304544    0.907612292030572    0.880620236070637  0.0000
  O3     O3        0.425801527817108    0.775669069025230    0.923457342562980  0.0000
  O1     O1        0.093826402217265    0.244525604167075    0.882186487406694  0.0000
  O1     O1        0.625617105762871    0.837032248013557    0.165275622869477  0.0000
  O3     O3        0.896599438289802    0.077697934202823    0.128854298719029  0.0000
  O1     O1        0.533985849088776    0.021098869810002    0.972873315260799  0.0000
  O3     O3        0.994382729830613    0.970177640755383    0.952831779224029  0.0000
  O1     O1        0.164983028482519    0.519091944084255    0.362847947313822  0.0000
  O1     O1        0.343580884854461    0.443256076603425    0.375054576179999  0.0000
  O3     O3        0.852732262554448    0.488000363272735    0.665610400316488  0.0000
  O1     O1        0.653243100487370    0.549804704315591    0.682861360338962  0.0000
  O1     O1        0.235697107981811    0.205629998520903    0.306116235907250  0.0000
  O1     O1        0.273981675627309    0.766563865458998    0.319784739964724  0.0000
  O1     O1        0.740464584378179    0.248019436232509    0.725454689522087  0.0000
  O3     O3        0.773789369339832    0.774804729604912    0.707258005532255  0.0000
  O1     O1        0.124913085984333    0.351214808663985    0.136787813553641  0.0000
  O3     O3        0.386658396886906    0.637977931535636    0.154933513997691  0.0000
  O1     O1        0.875622478459539    0.234207338772584    0.879144310624674  0.0000
  O1     O1        0.661235560106651    0.752861614651587    0.909228985069702  0.0000
  O3     O3        0.846844743690641    0.605313361560318    0.894263711185643  0.0000
  O1     O1        0.627950560566697    0.342187864486352    0.904632343357005  0.0000
  O1     O1        0.153346087568373    0.753933443851759    0.140334380340653  0.0000
  O1     O1        0.366522902006027    0.233372137726881    0.152715436158628  0.0000
  O1     O1        0.681411660751857    0.505475902161495    0.124849890000738  0.0000
  O1     O1        0.864173317414269    0.429674654041634    0.119570528053153  0.0000
  O3     O3        0.352294559405788    0.482808598234219    0.940346800611169  0.0000
  O1     O1        0.169298248378903    0.553854165580415    0.916937527229333  0.0000
  O1     O1        0.751763548183501    0.201427817238816    0.044302793559089  0.0000
  O1     O1        0.780033781074227    0.758728141743804    0.102101437247591  0.0000
  O1     O1        0.242907506724319    0.236033025048275    0.979102692087932  0.0000
  O3     O3        0.284560766974275    0.777264065028811    0.991285768047566  0.0000
