data_c01153.vasp
_audit_creation_method             Generated by GULP
_audit_author_name                 Salvador R. G. Balestra
_symmetry_space_group_name_H-M     'P 1             '
_symmetry_Int_Tables_number        1

loop_
_symmetry_equiv_pos_site_id
_symmetry_equiv_pos_as_xyz
_cell_length_a                       17.5686
_cell_length_b                        7.8133
_cell_length_c                       10.2692
_cell_angle_alpha                   89.4659
_cell_angle_beta                    89.9962
_cell_angle_gamma                   91.1812

loop_
_atom_site_label
_atom_site_type_symbol
_atom_site_fract_x
_atom_site_fract_y
_atom_site_fract_z
_atom_site_charge
  Ge     Ge        0.052090000000021    0.000000000000000    0.372269999999958  0.0000
  Ge     Ge        0.451080919007244    0.052738170152701    0.370363710727799  0.0000
  Ge     Ge        0.950184077102085    0.043905233245896    0.628739798240120  0.0000
  Ge     Ge        0.941011229909636    0.044119921875926    0.131480598525966  0.0000
  Ge     Ge        0.454846056472374    0.059666684321663    0.873774224606977  0.0000
  Ge     Ge        0.053016945697733    0.995286370259703    0.887162752380175  0.0000
  Ge     Ge        0.175660417839244    0.284861830792870    0.261261817231637  0.0000
  Ge     Ge        0.327013508903043    0.771293472992287    0.263014627785483  0.0000
  Ge     Ge        0.848733289634637    0.355518875432786    0.697632792010436  0.0000
  Ge     Ge        0.644445811726969    0.683157429793536    0.698857258185589  0.0000
  Ge     Ge        0.825906862310924    0.761322965203946    0.702938784024166  0.0000
  Ge     Ge        0.668390409780074    0.278675779381169    0.697593449670459  0.0000
  Ge     Ge        0.147196305210442    0.688121599902935    0.256328035348988  0.0000
  Ge     Ge        0.356783549811597    0.368000687492149    0.258406226927099  0.0000
  Ge     Ge        0.669149054937331    0.275481439248647    0.014548014041835  0.0000
  Ge     Ge        0.825391949157708    0.748504657941489    0.016775084767942  0.0000
  Ge     Ge        0.355052080788266    0.372017059825588    0.939795613437402  0.0000
  Ge     Ge        0.329816583542986    0.772767397460356    0.946687245683364  0.0000
  Ge     Ge        0.174353236060405    0.291768543313237    0.946083806600667  0.0000
  Ge     Ge        0.642496410670457    0.677304484838746    0.014054851965748  0.0000
  Si     Si        0.552454153897755    0.995369016769185    0.620500161686355  0.0000
  Si     Si        0.554827923498419    0.989617280461635    0.125848589576248  0.0000
  Si     Si        0.153708107593767    0.686963600950758    0.945470006763704  0.0000
  Si     Si        0.847274390481128    0.350705314657288    0.008148083956219  0.0000
  O1     O1        0.129024222389189    0.135350918281146    0.355533987110678  0.0000
  O1     O1        0.373472452725945    0.919850640028257    0.356216744951972  0.0000
  O1     O1        0.916014301180891    0.248039360450619    0.612916897132450  0.0000
  O3     O3        0.583532311924535    0.805081656889550    0.604269125670545  0.0000
  O1     O1        0.875369211126100    0.901434547046680    0.605188580483912  0.0000
  O3     O3        0.619620863774795    0.136068688861496    0.598968031984196  0.0000
  O1     O1        0.075653493544694    0.795044445940106    0.330251288731440  0.0000
  O1     O1        0.425128526817230    0.259348263607889    0.343029340733482  0.0000
  O1     O1        0.026878430639019    0.004498769235050    0.534680130149407  0.0000
  O3     O3        0.481211102002482    0.032907967647918    0.530645115112923  0.0000
  O1     O1        0.971688565941371    0.060027460231341    0.289914230665249  0.0000
  O3     O3        0.526709803653233    0.995329280356164    0.273891681701465  0.0000
  O1     O1        0.976326335675174    0.017889846261181    0.789813519297704  0.0000
  O3     O3        0.527941552068705    0.012501254199760    0.772246433868759  0.0000
  O3     O3        0.628804218387450    0.112632509986734    0.106485830982349  0.0000
  O1     O1        0.872242095002596    0.886189612963278    0.118792375421708  0.0000
  O1     O1        0.420909315796233    0.262214164584151    0.852511195771948  0.0000
  O3     O3        0.093679629842285    0.795785454226195    0.864910541977838  0.0000
  O1     O1        0.378456053614082    0.920896354896959    0.855483882602907  0.0000
  O1     O1        0.120105291209262    0.154544011751435    0.855180807723018  0.0000
  O3     O3        0.575621300861253    0.794651743429928    0.095387537506532  0.0000
  O3     O3        0.908462037667918    0.243969032308125    0.087439952037816  0.0000
  O3     O3        0.486892573661721    0.052504697256381    0.033749480568074  0.0000
  O1     O1        0.021661343143814    0.998733619468955    0.045719518108925  0.0000
  O1     O1        0.158205443950590    0.486656195058104    0.319801639305867  0.0000
  O1     O1        0.343239120379999    0.567445171230124    0.320995394077606  0.0000
  O1     O1        0.838168646553602    0.558579303693777    0.641120584299271  0.0000
  O1     O1        0.654634563403100    0.483170916475310    0.636886657818713  0.0000
  O1     O1        0.271945971627864    0.253119308744901    0.263381905559858  0.0000
  O1     O1        0.230817511682243    0.804976565700579    0.269435585905313  0.0000
  O1     O1        0.763925081437820    0.240804942583279    0.691718729618324  0.0000
  O1     O1        0.729885061713202    0.794780323581492    0.705434691842175  0.0000
  O1     O1        0.143517672217974    0.265529158753121    0.103834516243134  0.0000
  O1     O1        0.359660345597158    0.789016911330261    0.105570499240800  0.0000
  O3     O3        0.875050640189012    0.373562609296004    0.860071440650864  0.0000
  O1     O1        0.612423058478266    0.657557284923668    0.855819257118892  0.0000
  O1     O1        0.858568111625615    0.777289271234531    0.861192906001423  0.0000
  O1     O1        0.637296997212981    0.266062574107422    0.856625163219471  0.0000
  O3     O3        0.126310598260448    0.656129731341815    0.093654573373956  0.0000
  O1     O1        0.383874016373781    0.391947222671509    0.099174454581701  0.0000
  O1     O1        0.648605942802134    0.472990566197678    0.076699889082689  0.0000
  O3     O3        0.837578773018112    0.537679684329435    0.068491694243286  0.0000
  O1     O1        0.346282998400342    0.575022878487239    0.880809917245314  0.0000
  O3     O3        0.165328743199310    0.500703600412971    0.886175777243112  0.0000
  O3     O3        0.766584364545021    0.248106426481054    0.011380611822069  0.0000
  O1     O1        0.729217699172061    0.781478196024427    0.019503133992508  0.0000
  O1     O1        0.270158675646717    0.256223139852745    0.938798266619713  0.0000
  O3     O3        0.232234822164974    0.798795624656985    0.948282737531320  0.0000
