data_c01190.vasp
_audit_creation_method             Generated by GULP
_audit_author_name                 Salvador R. G. Balestra
_symmetry_space_group_name_H-M     'P 1             '
_symmetry_Int_Tables_number        1

loop_
_symmetry_equiv_pos_site_id
_symmetry_equiv_pos_as_xyz
_cell_length_a                       17.5701
_cell_length_b                        7.8451
_cell_length_c                       10.2089
_cell_angle_alpha                   89.3079
_cell_angle_beta                    90.0230
_cell_angle_gamma                   88.5511

loop_
_atom_site_label
_atom_site_type_symbol
_atom_site_fract_x
_atom_site_fract_y
_atom_site_fract_z
_atom_site_charge
  Ge     Ge        0.052090000000021    0.000000000000000    0.372269999999958  0.0000
  Ge     Ge        0.455587831407798    0.946118566767995    0.382848726456428  0.0000
  Ge     Ge        0.946485238722327    0.955619380858881    0.623055880955768  0.0000
  Ge     Ge        0.951668160587255    0.949969244304868    0.111023588807806  0.0000
  Ge     Ge        0.455107904093754    0.946414630495403    0.875056096080761  0.0000
  Ge     Ge        0.060776871225676    0.003858385772202    0.862009353025019  0.0000
  Ge     Ge        0.151027552810110    0.313425245613045    0.304108490088506  0.0000
  Ge     Ge        0.358432052215822    0.632466534118074    0.307416334501752  0.0000
  Ge     Ge        0.830266504201330    0.254313479504029    0.737523186298331  0.0000
  Ge     Ge        0.672369683973573    0.715500853894189    0.739803693367680  0.0000
  Ge     Ge        0.647608494775847    0.315670576223907    0.736989092139186  0.0000
  Ge     Ge        0.177622633818291    0.716473344051746    0.300542376001804  0.0000
  Ge     Ge        0.331704305998322    0.230315838671931    0.305268675273596  0.0000
  Ge     Ge        0.652836148160823    0.303667604843636    0.055459511182687  0.0000
  Ge     Ge        0.850724068352653    0.637859494220629    0.054431438246518  0.0000
  Ge     Ge        0.332783191162445    0.229827855621525    0.986812036708674  0.0000
  Ge     Ge        0.181155030434903    0.717875615148964    0.982768305628941  0.0000
  Ge     Ge        0.362392705699094    0.631641457824949    0.989517009190161  0.0000
  Ge     Ge        0.151544792676755    0.315143159596963    0.985114861022452  0.0000
  Ge     Ge        0.668548136285028    0.704479697402481    0.057598547997388  0.0000
  Si     Si        0.559281243492251    0.005636251277257    0.627222958077685  0.0000
  Si     Si        0.554741826473575    0.999071135691221    0.128193695602612  0.0000
  Si     Si        0.851515092997686    0.650545665775593    0.744202344934823  0.0000
  Si     Si        0.832059771831687    0.240860570436071    0.046435984601012  0.0000
  O1     O1        0.086505713708485    0.200779197844548    0.394178733311552  0.0000
  O1     O1        0.422401427317898    0.744058875211692    0.398575835085047  0.0000
  O1     O1        0.879995709472610    0.116605249186649    0.641130264070647  0.0000
  O3     O3        0.632220759653303    0.882486358975837    0.651807079384617  0.0000
  O3     O3        0.910814630837144    0.757970863658548    0.660365661730470  0.0000
  O3     O3        0.581133214153295    0.199536989406407    0.653648437486470  0.0000
  O1     O1        0.126022914003882    0.854328233556660    0.395467874229671  0.0000
  O1     O1        0.381433845121160    0.089125037388612    0.403950177749249  0.0000
  O1     O1        0.973017717549550    0.954958680071626    0.460429100782590  0.0000
  O3     O3        0.533382992932312    0.986433744320580    0.477602490701635  0.0000
  O1     O1        0.026690408731175    0.989402944751643    0.208214614661712  0.0000
  O3     O3        0.483113206561676    0.974041670977627    0.219749123033585  0.0000
  O1     O1        0.030096343897734    0.995227058034676    0.702310340185798  0.0000
  O3     O3        0.487843064522995    0.951528104316893    0.715456363191903  0.0000
  O3     O3        0.595661879318437    0.177794705953755    0.151156546357717  0.0000
  O1     O1        0.913667477662702    0.752068946066830    0.142022387225679  0.0000
  O1     O1        0.377888807361037    0.081822884796160    0.890601124219690  0.0000
  O1     O1        0.137939333815714    0.868594762535521    0.884304246099232  0.0000
  O1     O1        0.429837849025237    0.739987043160222    0.903978783554244  0.0000
  O1     O1        0.085489676668243    0.209149090579905    0.896639902009986  0.0000
  O3     O3        0.616401447452708    0.846113650413462    0.150924775983124  0.0000
  O3     O3        0.879103313057397    0.103464939232853    0.131414430983775  0.0000
  O3     O3        0.528094524415477    0.004835166968113    0.976665221300518  0.0000
  O1     O1        0.983287144202606    0.945252175211456    0.952147595863788  0.0000
  O1     O1        0.164198203922252    0.512902333196237    0.362248835495104  0.0000
  O1     O1        0.344552175168836    0.432147001682763    0.367059915646663  0.0000
  O3     O3        0.843002451773128    0.463294510349422    0.685078295307896  0.0000
  O1     O1        0.652678311100308    0.520181039300051    0.675041160161179  0.0000
  O1     O1        0.235833573355797    0.196288027571745    0.304868004002237  0.0000
  O1     O1        0.273758701753906    0.749818724689835    0.303685629831468  0.0000
  O1     O1        0.735343320683808    0.215503967185642    0.727692761429455  0.0000
  O3     O3        0.769324933562733    0.746902817134891    0.742917313718235  0.0000
  O1     O1        0.121114327179482    0.334123708752327    0.144060881438909  0.0000
  O1     O1        0.391241383225200    0.612421988421423    0.149782445780439  0.0000
  O3     O3        0.862597704334994    0.231592608099066    0.897215659336366  0.0000
  O1     O1        0.638563819813633    0.719250000343130    0.897211694137941  0.0000
  O3     O3        0.880514590173652    0.633638354987780    0.892578802812957  0.0000
  O1     O1        0.620370830811071    0.329474300264752    0.897739470919352  0.0000
  O1     O1        0.146847607394442    0.732502098700179    0.140236999741902  0.0000
  O1     O1        0.363806490668956    0.216340265406232    0.146276045300701  0.0000
  O1     O1        0.655833625663746    0.502236593037682    0.120535226944131  0.0000
  O3     O3        0.843730925636230    0.428664418574050    0.105903901735670  0.0000
  O1     O1        0.350369148928345    0.432432373723998    0.927770988470961  0.0000
  O1     O1        0.164685129488468    0.516784716407853    0.924017914099810  0.0000
  O3     O3        0.742451980550688    0.206103824088479    0.045210986834239  0.0000
  O1     O1        0.763860870086815    0.741658969851754    0.063415157252189  0.0000
  O1     O1        0.236483667106707    0.200353525162571    0.983527194962792  0.0000
  O1     O1        0.277554870370410    0.746449483572954    0.985619927349029  0.0000
