data_c01120.vasp
_audit_creation_method             Generated by GULP
_audit_author_name                 Salvador R. G. Balestra
_symmetry_space_group_name_H-M     'P 1             '
_symmetry_Int_Tables_number        1

loop_
_symmetry_equiv_pos_site_id
_symmetry_equiv_pos_as_xyz
_cell_length_a                       17.6241
_cell_length_b                        7.8201
_cell_length_c                       10.1273
_cell_angle_alpha                   88.1362
_cell_angle_beta                    91.3748
_cell_angle_gamma                   91.1108

loop_
_atom_site_label
_atom_site_type_symbol
_atom_site_fract_x
_atom_site_fract_y
_atom_site_fract_z
_atom_site_charge
  Ge     Ge        0.052090000000021    0.000000000000000    0.372269999999958  0.0000
  Ge     Ge        0.444505934908329    0.050464771340239    0.378332860503289  0.0000
  Ge     Ge        0.939780565777345    0.076936456917828    0.609947638903938  0.0000
  Ge     Ge        0.554707803207970    0.013918790665793    0.135131851983433  0.0000
  Ge     Ge        0.447469366459640    0.084059944780534    0.878465965426873  0.0000
  Ge     Ge        0.042863368768553    0.019871820482900    0.872071098145264  0.0000
  Ge     Ge        0.173561386399889    0.287241634968708    0.261329369443916  0.0000
  Ge     Ge        0.326372035804702    0.760387322363088    0.269220682804965  0.0000
  Ge     Ge        0.843610328201005    0.388575535808719    0.682458054800988  0.0000
  Ge     Ge        0.820380677231529    0.788107443540548    0.688422464693246  0.0000
  Ge     Ge        0.661695131714726    0.319447111755165    0.700148826539282  0.0000
  Ge     Ge        0.144210922133229    0.686761696762872    0.265801300511718  0.0000
  Ge     Ge        0.673413873146931    0.303292798121265    0.019417190430040  0.0000
  Ge     Ge        0.828916874977963    0.784203172943445    0.009913076522525  0.0000
  Ge     Ge        0.346320006832548    0.389618354101888    0.939850754428038  0.0000
  Ge     Ge        0.144897194573510    0.707639586498886    0.943940572602104  0.0000
  Ge     Ge        0.323907701073916    0.794520522115084    0.951063713093391  0.0000
  Ge     Ge        0.168937496656778    0.303491326096598    0.939967032125286  0.0000
  Ge     Ge        0.648657273917778    0.707047881239365    0.014751219974526  0.0000
  Ge     Ge        0.854533324146662    0.378973284212202    0.003826451812976  0.0000
  Si     Si        0.548153168549611    0.028269998489543    0.633345694068175  0.0000
  Si     Si        0.946527993639646    0.066098346169736    0.123213420595241  0.0000
  Si     Si        0.643226991954890    0.714793070043419    0.700468400443159  0.0000
  Si     Si        0.350425114692085    0.364894237530473    0.256204477034377  0.0000
  O1     O1        0.131543915691205    0.125998922910022    0.352037175431857  0.0000
  O1     O1        0.374369055664013    0.897308785615354    0.371084360168691  0.0000
  O1     O1        0.903817162080425    0.277910912752911    0.586776444022578  0.0000
  O2     O2        0.584101720277703    0.839467838591747    0.620736794515296  0.0000
  O1     O1        0.865251281794982    0.934399798211750    0.587928581427758  0.0000
  O3     O3        0.610027618314463    0.178057646440657    0.603618202185666  0.0000
  O1     O1        0.077778649012526    0.793092622079394    0.352110264403217  0.0000
  O3     O3        0.413518641160933    0.253160723211082    0.333068083268866  0.0000
  O1     O1        0.019565218192563    0.029103380625931    0.529018783316204  0.0000
  O3     O3        0.473792875289471    0.052546815469955    0.543848353052092  0.0000
  O3     O3        0.973938387125781    0.059559578016212    0.275533091777022  0.0000
  O1     O1        0.524009644858557    0.003402036794719    0.294625346365009  0.0000
  O1     O1        0.965337077716270    0.060589197195238    0.776635909691955  0.0000
  O3     O3        0.524428749227063    0.043913652278444    0.785490285237039  0.0000
  O1     O1        0.631146854651522    0.151809773087720    0.119531816049717  0.0000
  O3     O3        0.875933719124036    0.935941420636048    0.102073244802610  0.0000
  O1     O1        0.412483511845687    0.286815047123496    0.853093763392593  0.0000
  O1     O1        0.080154903281479    0.821345058036798    0.850536939381899  0.0000
  O1     O1        0.374249130550402    0.938451931301063    0.856741338405059  0.0000
  O1     O1        0.113768795138939    0.171047586554510    0.846403312147815  0.0000
  O1     O1        0.580414686870511    0.811220358800282    0.093723776710034  0.0000
  O3     O3        0.923246880706063    0.260123510991433    0.086449389598672  0.0000
  O1     O1        0.478058833991879    0.077537058086925    0.040928366426799  0.0000
  O3     O3        0.017329407184794    0.013881101369266    0.037630106744227  0.0000
  O1     O1        0.153593642435656    0.480813499280140    0.327076323473122  0.0000
  O3     O3        0.340735467119684    0.548391410985368    0.320605185727392  0.0000
  O1     O1        0.834329159941892    0.592470916465659    0.621191705552748  0.0000
  O3     O3        0.647853724518631    0.529269172980181    0.638783623761296  0.0000
  O3     O3        0.270855679091992    0.259290014150776    0.260767844236255  0.0000
  O1     O1        0.230633723335111    0.793204629084017    0.273531313233376  0.0000
  O1     O1        0.756819830782237    0.282699567034020    0.689595573326297  0.0000
  O3     O3        0.723749780596220    0.815598931251903    0.698528939999695  0.0000
  O1     O1        0.140469243448580    0.281212644330948    0.101118521760317  0.0000
  O1     O1        0.358034855921511    0.801023413620295    0.112004659590011  0.0000
  O1     O1        0.879081133180514    0.404436612923763    0.841653482612204  0.0000
  O3     O3        0.619895135906090    0.681886753139353    0.851259734844824  0.0000
  O1     O1        0.855951930006129    0.799316367248953    0.848012283728302  0.0000
  O1     O1        0.635290249891262    0.293564305815939    0.861408408733785  0.0000
  O1     O1        0.115328863795045    0.675230431429065    0.103657664335572  0.0000
  O3     O3        0.373139995366162    0.402981998490408    0.105709718177767  0.0000
  O1     O1        0.660391242129430    0.504028070291926    0.079415035236743  0.0000
  O1     O1        0.847778936077195    0.578776123401559    0.067835339194311  0.0000
  O1     O1        0.334260041010475    0.594827457666832    0.885191902711494  0.0000
  O1     O1        0.158259076528236    0.511831856347398    0.880755747369248  0.0000
  O1     O1        0.769106599974110    0.270824692903187    0.012045931800116  0.0000
  O1     O1        0.733536997931199    0.818743884841729    0.021417788398334  0.0000
  O1     O1        0.264157718184526    0.266430377950284    0.932175015208302  0.0000
  O1     O1        0.228148510901087    0.828561903406352    0.951036016719095  0.0000
