data_c01177.vasp
_audit_creation_method             Generated by GULP
_audit_author_name                 Salvador R. G. Balestra
_symmetry_space_group_name_H-M     'P 1             '
_symmetry_Int_Tables_number        1

loop_
_symmetry_equiv_pos_site_id
_symmetry_equiv_pos_as_xyz
_cell_length_a                       17.5206
_cell_length_b                        7.8314
_cell_length_c                       10.2243
_cell_angle_alpha                   90.8598
_cell_angle_beta                    89.4040
_cell_angle_gamma                   88.3093

loop_
_atom_site_label
_atom_site_type_symbol
_atom_site_fract_x
_atom_site_fract_y
_atom_site_fract_z
_atom_site_charge
  Ge     Ge        0.052090000000021    0.000000000000000    0.372269999999958  0.0000
  Ge     Ge        0.445837424046396    0.954055937548817    0.378499684279289  0.0000
  Ge     Ge        0.947753601735148    0.942749060560902    0.625146480794079  0.0000
  Ge     Ge        0.938406082207397    0.953704266845127    0.133861500271391  0.0000
  Ge     Ge        0.454854370703834    0.940974448993406    0.879102813580010  0.0000
  Ge     Ge        0.047534050894941    0.004190168508967    0.883042648312447  0.0000
  Ge     Ge        0.141226192331509    0.321151453434914    0.259967272770976  0.0000
  Ge     Ge        0.351413756583288    0.638219072918470    0.265919685522415  0.0000
  Ge     Ge        0.825097345934288    0.231556259668303    0.705549510129359  0.0000
  Ge     Ge        0.665526805259113    0.715943530974036    0.701237334434976  0.0000
  Ge     Ge        0.846468039366231    0.636941050247675    0.699438186483294  0.0000
  Ge     Ge        0.642929457908045    0.311927928171855    0.703692441070842  0.0000
  Ge     Ge        0.324361924925294    0.239154679529159    0.269059939821067  0.0000
  Ge     Ge        0.639499357305809    0.322366736507187    0.019301484681717  0.0000
  Ge     Ge        0.328230305895302    0.228916701536690    0.952218961853627  0.0000
  Ge     Ge        0.175090508143781    0.716999175058418    0.948501492188540  0.0000
  Ge     Ge        0.354917920228732    0.631648691671908    0.946621867083143  0.0000
  Ge     Ge        0.147218311589105    0.315562393456213    0.943928930745066  0.0000
  Ge     Ge        0.666532631455913    0.722686652446151    0.019296401273198  0.0000
  Ge     Ge        0.823640313052463    0.249698292931678    0.019878891852545  0.0000
  Si     Si        0.551526761081137    0.001936166111439    0.623641816303844  0.0000
  Si     Si        0.552475483042481    0.011447553426557    0.133063958127621  0.0000
  Si     Si        0.171803617743148    0.713730438371754    0.259736389926455  0.0000
  Si     Si        0.845863452327944    0.646315106339225    0.010857149467260  0.0000
  O1     O1        0.076114697018394    0.207935187299864    0.347335848028370  0.0000
  O1     O1        0.415949257943282    0.750671428454425    0.353992145541041  0.0000
  O1     O1        0.874699886035216    0.091867702236436    0.604636585913050  0.0000
  O3     O3        0.617414885984069    0.856549524968102    0.599973489665973  0.0000
  O1     O1        0.912035394093001    0.741748021732383    0.608124057833915  0.0000
  O3     O3        0.583678744010901    0.190006227899922    0.606735507837259  0.0000
  O3     O3        0.129357563566969    0.863408356869426    0.342281887379718  0.0000
  O1     O1        0.368704150806635    0.089535542654769    0.364255002927346  0.0000
  O1     O1        0.027166687545411    0.978844544134507    0.534984061136832  0.0000
  O3     O3        0.478083554725405    0.970168014571714    0.538063253122470  0.0000
  O1     O1        0.970371276093413    0.946077059043987    0.292158000047361  0.0000
  O3     O3        0.522842619757273    0.004830462120030    0.281434539291525  0.0000
  O1     O1        0.972205180981846    0.960292343977088    0.788377126997749  0.0000
  O3     O3        0.529147883226663    0.984879445631765    0.777420862641644  0.0000
  O3     O3        0.573743416918460    0.205731448747126    0.104071818944316  0.0000
  O3     O3        0.905957290364098    0.753693730384619    0.091611085046636  0.0000
  O1     O1        0.379843562372371    0.083744677367699    0.859511594516243  0.0000
  O1     O1        0.122351206422090    0.857510679812318    0.860533724312421  0.0000
  O1     O1        0.421793065019451    0.738158897484678    0.858709388507738  0.0000
  O1     O1        0.083719041034035    0.202546556362699    0.853926102805470  0.0000
  O3     O3        0.626887684340621    0.887418873372183    0.112660094590560  0.0000
  O1     O1        0.868367333402926    0.110593897710860    0.122688123782259  0.0000
  O3     O3        0.485191621812944    0.949627133498918    0.040222465519128  0.0000
  O1     O1        0.017739792472718    0.000281326743378    0.044124408487920  0.0000
  O3     O3        0.152612679083043    0.528909217975973    0.318066435173698  0.0000
  O1     O1        0.342679310834869    0.439807290386545    0.330057934916697  0.0000
  O1     O1        0.836431600688744    0.433666667299079    0.643837857949127  0.0000
  O1     O1        0.652913876040619    0.510898614248672    0.641358703634381  0.0000
  O1     O1        0.227811413806600    0.213427935839152    0.268764498120261  0.0000
  O3     O3        0.262198926375299    0.741801184428680    0.263808336779028  0.0000
  O1     O1        0.728824883586556    0.199738117764460    0.711073288331885  0.0000
  O1     O1        0.761346280584434    0.752627910353515    0.696044759287402  0.0000
  O1     O1        0.112040184264353    0.331704068347934    0.101887137542790  0.0000
  O1     O1        0.382507544063442    0.617900094933932    0.107257766121387  0.0000
  O1     O1        0.858605016122467    0.217578555592650    0.863659033731644  0.0000
  O1     O1        0.634042138975678    0.730329111646058    0.861483412049185  0.0000
  O3     O3        0.874424878803994    0.622657699545858    0.861749928920175  0.0000
  O1     O1        0.608766454873130    0.338543087951765    0.860899322988171  0.0000
  O3     O3        0.143783804250791    0.720070304257135    0.110448227981692  0.0000
  O1     O1        0.358864636246725    0.218811258853058    0.111496765605333  0.0000
  O1     O1        0.645339042149623    0.526645304928359    0.081946622007776  0.0000
  O3     O3        0.837032710177737    0.459795113947230    0.071265655931516  0.0000
  O1     O1        0.342349005995814    0.429748994422837    0.889179620213082  0.0000
  O1     O1        0.161888403102493    0.513669314319733    0.885087586701026  0.0000
  O1     O1        0.727214358743041    0.219881445427542    0.021142332219617  0.0000
  O3     O3        0.764247794545701    0.747341203693314    0.014041517953887  0.0000
  O1     O1        0.232104795883114    0.197421132455170    0.950150869155397  0.0000
  O1     O1        0.270680314702302    0.752503485985161    0.942122414597707  0.0000
