data_c01162.vasp
_audit_creation_method             Generated by GULP
_audit_author_name                 Salvador R. G. Balestra
_symmetry_space_group_name_H-M     'P 1             '
_symmetry_Int_Tables_number        1

loop_
_symmetry_equiv_pos_site_id
_symmetry_equiv_pos_as_xyz
_cell_length_a                       17.5544
_cell_length_b                        7.8131
_cell_length_c                       10.3214
_cell_angle_alpha                   89.6386
_cell_angle_beta                    89.7087
_cell_angle_gamma                   88.5119

loop_
_atom_site_label
_atom_site_type_symbol
_atom_site_fract_x
_atom_site_fract_y
_atom_site_fract_z
_atom_site_charge
  Ge     Ge        0.052090000000021    0.000000000000000    0.372269999999958  0.0000
  Ge     Ge        0.456255797541487    0.943111593265739    0.402455563673410  0.0000
  Ge     Ge        0.947919339993105    0.948543500871938    0.625811061528917  0.0000
  Ge     Ge        0.947288492078717    0.934369076745383    0.119674777841940  0.0000
  Ge     Ge        0.455147264470149    0.940693941652690    0.909730134271697  0.0000
  Ge     Ge        0.054709829605964    0.000941167963641    0.871323516528336  0.0000
  Ge     Ge        0.150675941826911    0.315896928750105    0.306187426595009  0.0000
  Ge     Ge        0.359858875170287    0.631504443082019    0.295248771548462  0.0000
  Ge     Ge        0.826415860943035    0.235169236785634    0.736001605759644  0.0000
  Ge     Ge        0.670437555936259    0.714366552872354    0.739286176081156  0.0000
  Ge     Ge        0.851023388536158    0.638597448396114    0.745514491543970  0.0000
  Ge     Ge        0.644396291480985    0.307329690534009    0.735331330659379  0.0000
  Ge     Ge        0.178873672767749    0.718298667464424    0.299041692763214  0.0000
  Ge     Ge        0.330766020838263    0.228827944039752    0.297955552407645  0.0000
  Ge     Ge        0.843929721596566    0.624473440810451    0.065708021154196  0.0000
  Ge     Ge        0.328566480444843    0.223946447907625    0.982096343489505  0.0000
  Ge     Ge        0.177361946401333    0.715888525024304    0.984526488760470  0.0000
  Ge     Ge        0.357757600874027    0.625326486069391    0.980480110522655  0.0000
  Ge     Ge        0.148109804910285    0.312077806727186    0.989623268806709  0.0000
  Ge     Ge        0.826460415281594    0.228734429734215    0.046379342978967  0.0000
  Si     Si        0.554335403001662    0.998256884850958    0.655769975750511  0.0000
  Si     Si        0.558410530307231    0.990772410555090    0.155693332408585  0.0000
  Si     Si        0.645093999425656    0.300043418808603    0.036040281163710  0.0000
  Si     Si        0.665175822415001    0.692433781429235    0.048676498030674  0.0000
  O1     O1        0.084056430978243    0.203962562823840    0.392166433048238  0.0000
  O1     O1        0.427994935907889    0.738489055600331    0.378655044708971  0.0000
  O1     O1        0.872170370968529    0.088798455985482    0.639421674449306  0.0000
  O3     O3        0.623474440524973    0.859995853822795    0.640567153257077  0.0000
  O1     O1        0.921818556367501    0.745581924960243    0.668476867073684  0.0000
  O3     O3        0.583558716229069    0.190476163126052    0.640079437720375  0.0000
  O1     O1        0.128332931754849    0.860168622187812    0.393168762921536  0.0000
  O1     O1        0.379742510669687    0.080505366062485    0.389120399625500  0.0000
  O1     O1        0.975837251988466    0.950660297674750    0.465529934149228  0.0000
  O3     O3        0.486064497412932    0.960007300554639    0.561698793864741  0.0000
  O1     O1        0.022525711500904    0.982486679744414    0.212545369771536  0.0000
  O3     O3        0.532618464334846    0.995093067175298    0.304095421161714  0.0000
  O1     O1        0.026034801810375    0.007251252047463    0.712401041260631  0.0000
  O3     O3        0.528287627588151    0.976929116078656    0.805529585247761  0.0000
  O2     O2        0.595002851541207    0.175817967613866    0.126002921265242  0.0000
  O1     O1        0.907832790946411    0.738305352289738    0.150916938622005  0.0000
  O1     O1        0.378864495605235    0.080782477657762    0.889290526494282  0.0000
  O1     O1        0.132234371365533    0.864640247395738    0.888244615449328  0.0000
  O1     O1        0.423096305509192    0.736770768588065    0.892526444515643  0.0000
  O1     O1        0.078052729224997    0.206108189887362    0.911806059141284  0.0000
  O2     O2        0.617543941044880    0.830215672955626    0.134164414819282  0.0000
  O1     O1        0.870100221470397    0.074642204603518    0.137185733268937  0.0000
  O3     O3        0.484538827771761    0.965775273338459    0.069124725453221  0.0000
  O1     O1        0.978700537750779    0.932595178611490    0.961179407112532  0.0000
  O1     O1        0.164192656066722    0.516377329121339    0.363595727179469  0.0000
  O1     O1        0.345537718265102    0.431340743447171    0.357454103241790  0.0000
  O1     O1        0.840703178567718    0.439819379365767    0.679753930570322  0.0000
  O1     O1        0.652856680594490    0.512066147628575    0.681274909883052  0.0000
  O1     O1        0.234553128627770    0.195842335141593    0.305476693791361  0.0000
  O1     O1        0.275103894050338    0.749850757973308    0.299062133814020  0.0000
  O1     O1        0.730605079623577    0.200168747759600    0.734536404777770  0.0000
  O1     O1        0.765606789304685    0.752321320329385    0.732747350421880  0.0000
  O1     O1        0.121432146103729    0.338430310890438    0.148194637864992  0.0000
  O1     O1        0.388539027809257    0.606107542517002    0.137821872683295  0.0000
  O1     O1        0.862112874324182    0.213818767441848    0.890792395695273  0.0000
  O3     O3        0.640845613436166    0.718046946760802    0.900320853638834  0.0000
  O1     O1        0.871659113455186    0.610494378373140    0.906049826633575  0.0000
  O3     O3        0.609538081724266    0.312319465285394    0.894004869293694  0.0000
  O1     O1        0.145471578123392    0.732975632064034    0.142255294316625  0.0000
  O1     O1        0.359906832663776    0.214281740916570    0.139638574090110  0.0000
  O2     O2        0.648083928849549    0.494824535694993    0.092787740516456  0.0000
  O1     O1        0.842895472329980    0.419658303352887    0.121930496479036  0.0000
  O1     O1        0.342859256743335    0.427102466960533    0.920026513096686  0.0000
  O1     O1        0.160613363328985    0.513158733608504    0.926966946125662  0.0000
  O3     O3        0.729048838166331    0.216861639091945    0.026806926418869  0.0000
  O3     O3        0.753895291795997    0.723748299405751    0.067713223595856  0.0000
  O1     O1        0.232134224457679    0.192552500710701    0.980700696978871  0.0000
  O1     O1        0.273651900526256    0.745007472708504    0.984032217286310  0.0000
