data_c01185.vasp
_audit_creation_method             Generated by GULP
_audit_author_name                 Salvador R. G. Balestra
_symmetry_space_group_name_H-M     'P 1             '
_symmetry_Int_Tables_number        1

loop_
_symmetry_equiv_pos_site_id
_symmetry_equiv_pos_as_xyz
_cell_length_a                       17.5535
_cell_length_b                        7.8401
_cell_length_c                       10.2022
_cell_angle_alpha                   91.0881
_cell_angle_beta                    89.7849
_cell_angle_gamma                   88.3703

loop_
_atom_site_label
_atom_site_type_symbol
_atom_site_fract_x
_atom_site_fract_y
_atom_site_fract_z
_atom_site_charge
  Ge     Ge        0.052090000000021    0.000000000000000    0.372269999999958  0.0000
  Ge     Ge        0.452468718032103    0.948648129516841    0.382889861372366  0.0000
  Ge     Ge        0.944398039084794    0.930391635759967    0.617465562481656  0.0000
  Ge     Ge        0.951337852346605    0.940035426037568    0.115366444067522  0.0000
  Ge     Ge        0.447267746749822    0.940039606797446    0.873681987104695  0.0000
  Ge     Ge        0.057019687864698    0.989094724219581    0.860923550408552  0.0000
  Ge     Ge        0.148756444663689    0.312198539048267    0.302041167658984  0.0000
  Ge     Ge        0.358132980019058    0.632641652754288    0.301242167244806  0.0000
  Ge     Ge        0.825184637099595    0.222168084264070    0.738010498415320  0.0000
  Ge     Ge        0.665401871116104    0.687204186422497    0.733364192245273  0.0000
  Ge     Ge        0.849442604674296    0.620754131794275    0.730331062205254  0.0000
  Ge     Ge        0.176425645718792    0.714517273150647    0.298310623407520  0.0000
  Ge     Ge        0.328874968268143    0.228963793771095    0.298885731731426  0.0000
  Ge     Ge        0.645675362703635    0.305807328148577    0.056717493826542  0.0000
  Ge     Ge        0.846486172326714    0.633274110635194    0.052349725221022  0.0000
  Ge     Ge        0.176649645326205    0.704414455647470    0.980825336547775  0.0000
  Ge     Ge        0.359424696611563    0.621436570122799    0.986211763824959  0.0000
  Ge     Ge        0.150664604449854    0.303990826379110    0.982915839210318  0.0000
  Ge     Ge        0.664956790223962    0.709967583824420    0.051131273853716  0.0000
  Ge     Ge        0.826405924757500    0.230123595697632    0.054534138390969  0.0000
  Si     Si        0.554846079732333    0.986168573617660    0.630412369279902  0.0000
  Si     Si        0.548480112744966    0.002341128282194    0.124712291537350  0.0000
  Si     Si        0.645502613283473    0.293949923819664    0.747002819092975  0.0000
  Si     Si        0.329748716391302    0.226402269550698    0.987146753912073  0.0000
  O1     O1        0.083859468423893    0.203595558405550    0.392918253030693  0.0000
  O1     O1        0.420138618727508    0.746314166799262    0.397167904750104  0.0000
  O1     O1        0.865614066556002    0.059560490698491    0.647205872809470  0.0000
  O3     O3        0.616377434456853    0.832353444807417    0.638395686515945  0.0000
  O1     O1        0.917326624196656    0.725817612268871    0.644836441674823  0.0000
  O2     O2        0.588203684055189    0.169016668808206    0.671632610816467  0.0000
  O1     O1        0.126494355460484    0.856731541488276    0.396899475149237  0.0000
  O1     O1        0.377197172991690    0.092021575688502    0.398403687089302  0.0000
  O1     O1        0.971593811372688    0.954611828224898    0.456526747764409  0.0000
  O3     O3        0.528571272773280    0.995235285384687    0.480086412580986  0.0000
  O1     O1        0.028934729396282    0.977283924288695    0.207562663487863  0.0000
  O3     O3        0.478969744626640    0.972688060597841    0.219539326425083  0.0000
  O1     O1        0.025044782907196    0.984068182367725    0.701670389254133  0.0000
  O3     O3        0.479108420759545    0.951890272708706    0.713638449419481  0.0000
  O3     O3        0.581414968287568    0.190841805976843    0.145020924800521  0.0000
  O1     O1        0.911530233569623    0.744832297817708    0.140261921918087  0.0000
  O3     O3        0.370821483575242    0.080795978737867    0.898114021847233  0.0000
  O1     O1        0.133291552514371    0.851204782002580    0.882335833055919  0.0000
  O1     O1        0.420797941304723    0.732739358447249    0.891970482330054  0.0000
  O1     O1        0.086136792777096    0.192765150367886    0.894176932239003  0.0000
  O3     O3        0.615234282742560    0.859375028796183    0.145904523553414  0.0000
  O1     O1        0.880329363116364    0.093081961114003    0.144740253799163  0.0000
  O3     O3        0.522343874220086    0.988132264791071    0.973650917551556  0.0000
  O1     O1        0.979749084450420    0.937414730996212    0.953097593870706  0.0000
  O1     O1        0.161887623825123    0.513657083469283    0.360235659079631  0.0000
  O1     O1        0.343865450890461    0.433615403296156    0.357743944345358  0.0000
  O1     O1        0.844336377676373    0.414976899181046    0.670490153753452  0.0000
  O3     O3        0.650676067260858    0.477279306738545    0.679904434414309  0.0000
  O1     O1        0.233344883845219    0.193914531934526    0.303959555012673  0.0000
  O1     O1        0.272368840802132    0.747054365343135    0.297406306610000  0.0000
  O3     O3        0.727715225110219    0.199266909197994    0.748779614888285  0.0000
  O1     O1        0.760966100423328    0.721082094922652    0.720753541251000  0.0000
  O1     O1        0.118978702364988    0.323579723570322    0.141860929633300  0.0000
  O1     O1        0.393119750322095    0.619123214393374    0.143511072943282  0.0000
  O1     O1        0.859354792896159    0.213120302201017    0.895120106712193  0.0000
  O1     O1        0.634164680206009    0.715490847408769    0.891164739588821  0.0000
  O1     O1        0.875458126648717    0.609059266480988    0.891512333759202  0.0000
  O3     O3        0.617261802844685    0.328490958240806    0.894780484385911  0.0000
  O1     O1        0.143282230037389    0.723244130687577    0.139409630991963  0.0000
  O3     O3        0.359086710319370    0.216855595551750    0.136231004049005  0.0000
  O1     O1        0.652208078052939    0.509834530246990    0.115619458856836  0.0000
  O1     O1        0.835690232865842    0.435588291481828    0.114934024688382  0.0000
  O3     O3        0.347661242614047    0.413017418351552    0.931699545653287  0.0000
  O1     O1        0.158193309378117    0.503114701110264    0.920146459903593  0.0000
  O1     O1        0.730760571063066    0.192653387414226    0.060058509269304  0.0000
  O1     O1        0.760616932915676    0.746487013160815    0.051721469584339  0.0000
  O3     O3        0.239376121536941    0.199633496656503    0.984670036946867  0.0000
  O1     O1        0.273025928107131    0.729094500376037    0.983975294728649  0.0000
