data_c01118.vasp
_audit_creation_method             Generated by GULP
_audit_author_name                 Salvador R. G. Balestra
_symmetry_space_group_name_H-M     'P 1             '
_symmetry_Int_Tables_number        1

loop_
_symmetry_equiv_pos_site_id
_symmetry_equiv_pos_as_xyz
_cell_length_a                       17.6555
_cell_length_b                        7.8313
_cell_length_c                       10.0890
_cell_angle_alpha                   90.1991
_cell_angle_beta                    90.1935
_cell_angle_gamma                   91.4249

loop_
_atom_site_label
_atom_site_type_symbol
_atom_site_fract_x
_atom_site_fract_y
_atom_site_fract_z
_atom_site_charge
  Ge     Ge        0.052090000000021    0.000000000000000    0.372269999999958  0.0000
  Ge     Ge        0.446057283141680    0.061641284576036    0.350411349212577  0.0000
  Ge     Ge        0.941949451797082    0.041635262576700    0.623329457961982  0.0000
  Ge     Ge        0.551073449443532    0.997155259142453    0.095736982506982  0.0000
  Ge     Ge        0.449271885587855    0.054831350371098    0.835327344481175  0.0000
  Ge     Ge        0.047979565973360    0.996615766912777    0.880358372910842  0.0000
  Ge     Ge        0.169836706905972    0.299015656448267    0.268772979593721  0.0000
  Ge     Ge        0.324020944743347    0.776832206696489    0.269347821819499  0.0000
  Ge     Ge        0.850181760830385    0.363796598532204    0.694158729785032  0.0000
  Ge     Ge        0.645011687027601    0.692196480478333    0.704138361968294  0.0000
  Ge     Ge        0.667485057172417    0.292002999025048    0.702255388524510  0.0000
  Ge     Ge        0.350332526599446    0.376225011478988    0.278874757486547  0.0000
  Ge     Ge        0.673775543327573    0.285767034501369    0.021850968946722  0.0000
  Ge     Ge        0.829705545486711    0.764391704070964    0.011963854340033  0.0000
  Ge     Ge        0.353674133731297    0.365305737769260    0.955218165622310  0.0000
  Ge     Ge        0.148120432595681    0.683740392215154    0.942488364308232  0.0000
  Ge     Ge        0.326339309137925    0.771082785600534    0.946513060936479  0.0000
  Ge     Ge        0.173532747821426    0.281619081406068    0.948106140145159  0.0000
  Ge     Ge        0.650534760826281    0.687542488681767    0.028436175160096  0.0000
  Ge     Ge        0.855519215565343    0.359154153552778    0.012413436823293  0.0000
  Si     Si        0.554018199193935    0.002900418327938    0.588972430438555  0.0000
  Si     Si        0.946944513626349    0.054499535700896    0.129307029980297  0.0000
  Si     Si        0.823400896440003    0.756239381805428    0.695469172112706  0.0000
  Si     Si        0.148128479015316    0.693851624967323    0.259061550926055  0.0000
  O1     O1        0.119523853635563    0.159850178439977    0.367066359683726  0.0000
  O1     O1        0.369827215089787    0.922706103675980    0.368764918374264  0.0000
  O1     O1        0.907430724494474    0.242102676273683    0.596532951639530  0.0000
  O3     O3        0.579144451378470    0.812175084720071    0.622279235214318  0.0000
  O3     O3        0.867740892007599    0.893141070474639    0.606120957207575  0.0000
  O3     O3        0.624198339926462    0.133016576658343    0.608573169373643  0.0000
  O3     O3        0.085850049300512    0.800693432393490    0.335704706420524  0.0000
  O1     O1        0.414181037414808    0.264097725635089    0.371677410812191  0.0000
  O1     O1        0.019252508586072    0.992590615430253    0.532775563177788  0.0000
  O3     O3        0.526266750388858    0.010178993412145    0.436968335297631  0.0000
  O3     O3        0.971074111373171    0.042966012563475    0.282359649025649  0.0000
  O1     O1        0.473672660164643    0.041171735907584    0.186487514908854  0.0000
  O1     O1        0.971369409447229    0.038280654782341    0.787076855934037  0.0000
  O3     O3        0.480694936814718    0.056496313602565    0.672373856756841  0.0000
  O1     O1        0.624295430154393    0.144290631773438    0.117889012135898  0.0000
  O3     O3        0.878493491502132    0.921822250342518    0.096734098535302  0.0000
  O1     O1        0.421755917193399    0.258926377681735    0.871018494695402  0.0000
  O1     O1        0.080055737801516    0.792044681124374    0.859914895026094  0.0000
  O1     O1        0.373201524431905    0.915508536671986    0.848696388970652  0.0000
  O1     O1        0.123040302098626    0.136906429017601    0.854536621595834  0.0000
  O1     O1        0.587087050887829    0.797399044352229    0.121004701972789  0.0000
  O3     O3        0.920851872395750    0.246525065724249    0.102032885036214  0.0000
  O1     O1        0.523438390190408    0.995779992204268    0.931064309730412  0.0000
  O3     O3        0.021135474991459    0.010395089987731    0.046030445480274  0.0000
  O3     O3        0.158749183935710    0.508689764969801    0.323709108419609  0.0000
  O1     O1        0.341262323249230    0.579157330845861    0.336050875966242  0.0000
  O3     O3        0.837811100846994    0.568061384220860    0.635582117903023  0.0000
  O1     O1        0.647955536829211    0.490082236294099    0.638523956392574  0.0000
  O1     O1        0.265157169647030    0.263778209990913    0.278904268142331  0.0000
  O3     O3        0.226923453891635    0.803681813692577    0.264131845201077  0.0000
  O1     O1        0.762866665934855    0.262507877807714    0.702048514749366  0.0000
  O3     O3        0.734158786162883    0.790385313542994    0.696290886249880  0.0000
  O1     O1        0.140686121816975    0.269262183417558    0.108569853924717  0.0000
  O1     O1        0.356330067827932    0.791177016820287    0.108822704682811  0.0000
  O1     O1        0.886686073289764    0.372425098676271    0.851936555657767  0.0000
  O1     O1        0.619891706951115    0.669382802881497    0.866136098141948  0.0000
  O3     O3        0.854894309226367    0.763442243480161    0.845964967418026  0.0000
  O1     O1        0.636834109344841    0.276974841283694    0.863150986123399  0.0000
  O3     O3        0.123662651831088    0.659637804400003    0.108225356112534  0.0000
  O1     O1        0.381123154652497    0.388842305841882    0.117565146849271  0.0000
  O1     O1        0.662792492816656    0.487401985773228    0.088099739873147  0.0000
  O1     O1        0.847576832519210    0.563637666737518    0.072503647487511  0.0000
  O1     O1        0.341452810302448    0.565543258461567    0.892157356269053  0.0000
  O1     O1        0.159473632487819    0.482636328960093    0.882874366749390  0.0000
  O1     O1        0.769197327289036    0.252311598587101    0.016213779815052  0.0000
  O1     O1        0.735373866445555    0.801995054671915    0.026273042756292  0.0000
  O1     O1        0.269194285912146    0.249176861644517    0.948564159620188  0.0000
  O1     O1        0.230861540851317    0.803860563002684    0.937117421666112  0.0000
