data_c01105.vasp
_audit_creation_method             Generated by GULP
_audit_author_name                 Salvador R. G. Balestra
_symmetry_space_group_name_H-M     'P 1             '
_symmetry_Int_Tables_number        1

loop_
_symmetry_equiv_pos_site_id
_symmetry_equiv_pos_as_xyz
_cell_length_a                       17.7749
_cell_length_b                        7.8647
_cell_length_c                       10.3196
_cell_angle_alpha                   91.2988
_cell_angle_beta                    91.2016
_cell_angle_gamma                   91.2230

loop_
_atom_site_label
_atom_site_type_symbol
_atom_site_fract_x
_atom_site_fract_y
_atom_site_fract_z
_atom_site_charge
  Ge     Ge        0.052090000000021    0.000000000000000    0.372269999999958  0.0000
  Ge     Ge        0.452323489915209    0.050538211586069    0.357382918024725  0.0000
  Ge     Ge        0.944382897802715    0.013502084908540    0.622316085557858  0.0000
  Ge     Ge        0.556072729084490    0.035590943085482    0.100924098824763  0.0000
  Ge     Ge        0.447422598016748    0.044725965202654    0.845141467975707  0.0000
  Ge     Ge        0.049758326313925    0.003622953503762    0.882252346149672  0.0000
  Ge     Ge        0.174120380599549    0.287949110046513    0.263380814793548  0.0000
  Ge     Ge        0.330145967119534    0.764461625318624    0.277359540960709  0.0000
  Ge     Ge        0.830447984526067    0.300809295352041    0.704829686046089  0.0000
  Ge     Ge        0.658498714613222    0.724207567789798    0.711423585364265  0.0000
  Ge     Ge        0.839370341581322    0.704301963737266    0.693543403525065  0.0000
  Ge     Ge        0.150477718554847    0.690401580041522    0.271885414771955  0.0000
  Ge     Ge        0.353524453859675    0.357972042316077    0.271351381809628  0.0000
  Ge     Ge        0.661751226913620    0.348703595757305    0.036330285512788  0.0000
  Ge     Ge        0.354534573540887    0.359066547248055    0.955022099343384  0.0000
  Ge     Ge        0.147883014444963    0.689723945665480    0.956199061272556  0.0000
  Ge     Ge        0.328032625201694    0.765652401371725    0.962600194422912  0.0000
  Ge     Ge        0.174202644471574    0.289621648446470    0.946859332228962  0.0000
  Ge     Ge        0.671868363333329    0.750235174784089    0.024106761798930  0.0000
  Ge     Ge        0.842288854917734    0.324213462251349    0.018541210441380  0.0000
  Si     Si        0.552146172258950    0.017513696315520    0.608668122095671  0.0000
  Si     Si        0.948750255867599    0.032930125092063    0.124158089402195  0.0000
  Si     Si        0.653302077350414    0.325558057777664    0.726866077932979  0.0000
  Si     Si        0.849380693299982    0.725017807279426    0.001700158771617  0.0000
  O1     O1        0.124007206646141    0.142525147352798    0.348702743956883  0.0000
  O1     O1        0.381259945977293    0.902509996921837    0.377165400147509  0.0000
  O1     O1        0.876247839691145    0.164326969073970    0.605561757047937  0.0000
  O3     O3        0.600901845141153    0.849515798485115    0.619120613684495  0.0000
  O1     O1        0.899162484439577    0.819386105360027    0.600901316369516  0.0000
  O2     O2        0.596519037251171    0.188551738312182    0.658118366253591  0.0000
  O1     O1        0.085851941370991    0.798737318688289    0.360858747507390  0.0000
  O1     O1        0.416349088608134    0.250251575650769    0.365616304385013  0.0000
  O1     O1        0.020019779339492    0.035795720862482    0.526581706129079  0.0000
  O3     O3        0.529678515031135    0.034093859466533    0.458683088749837  0.0000
  O3     O3        0.973014946220694    0.022588426568265    0.273589049531652  0.0000
  O1     O1        0.483999192466773    0.009678968822301    0.202894885475237  0.0000
  O1     O1        0.975569310897802    0.034814815020259    0.781436585832863  0.0000
  O3     O3        0.475351260906946    0.005770956402622    0.687349104055525  0.0000
  O1     O1        0.598649875801877    0.233380317508335    0.121483050253637  0.0000
  O2     O2        0.904859628234596    0.859561167746752    0.076677831651867  0.0000
  O1     O1        0.419455644275139    0.251117421044781    0.866984780963843  0.0000
  O1     O1        0.083792077841166    0.801705730823379    0.868057590361967  0.0000
  O1     O1        0.371075708724438    0.913030495974698    0.869692775523538  0.0000
  O1     O1        0.123410060960199    0.144054696011544    0.855164815341286  0.0000
  O1     O1        0.627756392862552    0.892565516012647    0.119954155195240  0.0000
  O3     O3        0.898643922242897    0.199445338535944    0.112699815483792  0.0000
  O1     O1        0.521599955806259    0.000754193793608    0.945493433786884  0.0000
  O3     O3        0.023589976031837    0.047498690557237    0.041296843093578  0.0000
  O1     O1        0.161766255312763    0.489717614654384    0.328421716271088  0.0000
  O1     O1        0.342744361754440    0.559854320139490    0.329817962019103  0.0000
  O1     O1        0.837947430798025    0.498237301285290    0.639374393392431  0.0000
  O3     O3        0.650669756754040    0.509799264273850    0.662581996034415  0.0000
  O1     O1        0.268646864970132    0.247181474301021    0.269531224813888  0.0000
  O1     O1        0.235492130729149    0.801202078909907    0.279522137584028  0.0000
  O3     O3        0.735954043378741    0.248594993250309    0.719250860103959  0.0000
  O1     O1        0.750471065668668    0.785241616879772    0.690035345981150  0.0000
  O1     O1        0.144952948383680    0.287027937748631    0.104710123724963  0.0000
  O1     O1        0.360616337755272    0.778837874555081    0.120606345320793  0.0000
  O1     O1        0.867369497057981    0.299740577779671    0.860447308430314  0.0000
  O1     O1        0.633516407253659    0.746480383837667    0.869310193245074  0.0000
  O3     O3        0.873553118738394    0.707861668336279    0.853231602948909  0.0000
  O3     O3        0.630647386636271    0.348922484908688    0.875332086869857  0.0000
  O1     O1        0.118708436512050    0.678688614609535    0.113632837606596  0.0000
  O1     O1        0.384892162459880    0.362253760162479    0.114703451269188  0.0000
  O1     O1        0.663530403371043    0.554188745053724    0.092412352530186  0.0000
  O3     O3        0.851805443989300    0.539497973267729    0.063734505825818  0.0000
  O1     O1        0.344628573818287    0.562575430805464    0.903554838240632  0.0000
  O1     O1        0.158670608473825    0.491399370329290    0.890061521292573  0.0000
  O1     O1        0.750282584604316    0.265903016645646    0.041779323953040  0.0000
  O3     O3        0.766309129034374    0.799720167408212    0.006396757310342  0.0000
  O1     O1        0.268725420435586    0.252963925872349    0.943775850963908  0.0000
  O1     O1        0.233115116170332    0.798635314006479    0.961166686218796  0.0000
