data_c01119.vasp
_audit_creation_method             Generated by GULP
_audit_author_name                 Salvador R. G. Balestra
_symmetry_space_group_name_H-M     'P 1             '
_symmetry_Int_Tables_number        1

loop_
_symmetry_equiv_pos_site_id
_symmetry_equiv_pos_as_xyz
_cell_length_a                       17.5998
_cell_length_b                        7.8210
_cell_length_c                       10.1478
_cell_angle_alpha                   90.1051
_cell_angle_beta                    90.7307
_cell_angle_gamma                   88.9893

loop_
_atom_site_label
_atom_site_type_symbol
_atom_site_fract_x
_atom_site_fract_y
_atom_site_fract_z
_atom_site_charge
  Ge     Ge        0.052090000000021    0.000000000000000    0.372269999999958  0.0000
  Ge     Ge        0.453481286546978    0.955805019110644    0.391665522126830  0.0000
  Ge     Ge        0.942276625710906    0.952842375444326    0.616961335369621  0.0000
  Ge     Ge        0.557247622166843    0.007437643875105    0.134437861904181  0.0000
  Ge     Ge        0.453895515264865    0.954603060939903    0.874008902908473  0.0000
  Ge     Ge        0.058722028243970    0.007249111932619    0.861343840372013  0.0000
  Ge     Ge        0.149524933569177    0.316974050137963    0.302757611646069  0.0000
  Ge     Ge        0.357606551396879    0.639932816462505    0.312995921561597  0.0000
  Ge     Ge        0.829985088656106    0.250018484700816    0.730651261785836  0.0000
  Ge     Ge        0.671161693052611    0.704584036824168    0.741299938181283  0.0000
  Ge     Ge        0.177451410210242    0.720547656208687    0.302869590027057  0.0000
  Ge     Ge        0.329856324911427    0.235149493390697    0.307202651798384  0.0000
  Ge     Ge        0.661467980658778    0.310742801129330    0.063105033825507  0.0000
  Ge     Ge        0.857800050556478    0.641132107226043    0.050216531005528  0.0000
  Ge     Ge        0.331449375147706    0.235900528920202    0.987575393759975  0.0000
  Ge     Ge        0.180349866669849    0.724599095091551    0.982310054794175  0.0000
  Ge     Ge        0.360827196054580    0.641571895360901    0.992411934796159  0.0000
  Ge     Ge        0.150945137563297    0.320756512464843    0.982879215909530  0.0000
  Ge     Ge        0.678922146678709    0.717339180291956    0.059698489236539  0.0000
  Ge     Ge        0.840892106113854    0.234268443405738    0.047155480600300  0.0000
  Si     Si        0.560859219181170    0.001456668692633    0.632975886440430  0.0000
  Si     Si        0.959450182468484    0.944986450642826    0.111617106737076  0.0000
  Si     Si        0.849877809304717    0.642143435145613    0.735037778606599  0.0000
  Si     Si        0.651232876906566    0.310221129624149    0.750089035979649  0.0000
  O1     O1        0.084846269162205    0.203862071382353    0.391701215512610  0.0000
  O1     O1        0.420952892780210    0.752227728869108    0.409106034208770  0.0000
  O1     O1        0.871516310774050    0.104764649011188    0.628071629042553  0.0000
  O3     O3        0.625432183828309    0.855117651146261    0.644475631371163  0.0000
  O3     O3        0.909716678106680    0.752841535869836    0.656526697209765  0.0000
  O2     O2        0.591113034360954    0.187304250260484    0.676791536663449  0.0000
  O1     O1        0.126431114959730    0.858651884434326    0.399495405235751  0.0000
  O1     O1        0.379004579508071    0.097756591373426    0.409434897466322  0.0000
  O1     O1        0.972429892357759    0.953290271939218    0.456210682046049  0.0000
  O3     O3        0.533645015362797    0.007288899964592    0.481404320453257  0.0000
  O3     O3        0.030851296048002    0.977995981318334    0.203851552017822  0.0000
  O1     O1        0.480922182991684    0.973935635472260    0.228766700145131  0.0000
  O1     O1        0.023929219979303    0.999308481417455    0.702931945295045  0.0000
  O3     O3        0.485629060599048    0.955373013051458    0.712491928461109  0.0000
  O1     O1        0.598963210672752    0.203488909565338    0.157136253371922  0.0000
  O3     O3        0.925624362194766    0.756790988618960    0.133576809239688  0.0000
  O1     O1        0.376632236512121    0.089470051575142    0.889426428402051  0.0000
  O1     O1        0.135298162249424    0.871300947018472    0.882440747952162  0.0000
  O1     O1        0.428455842666283    0.748181624811723    0.907656728916129  0.0000
  O1     O1        0.084969086585800    0.213888621326285    0.890964520765235  0.0000
  O1     O1        0.626908723128087    0.851556528573536    0.156137765949225  0.0000
  O3     O3        0.894321003433231    0.089060009592756    0.137366830477894  0.0000
  O1     O1        0.528043019093441    0.013907431211030    0.971741319525204  0.0000
  O3     O3        0.983743083677055    0.949995530513385    0.959212862745517  0.0000
  O1     O1        0.163685586515216    0.516839257031399    0.363750149284193  0.0000
  O1     O1        0.343290116484068    0.438773393800902    0.369506617028072  0.0000
  O3     O3        0.843346838872880    0.454865081688539    0.670776576127599  0.0000
  O3     O3        0.652403279748919    0.498416982002656    0.685779039354599  0.0000
  O1     O1        0.234108717931160    0.200110807248927    0.303637487362715  0.0000
  O1     O1        0.273244723512844    0.756595951827391    0.308825721918320  0.0000
  O3     O3        0.733363561430713    0.218656738973848    0.741043729553355  0.0000
  O3     O3        0.767942198442611    0.737519038841163    0.733078678354469  0.0000
  O1     O1        0.119484948595056    0.338564845246986    0.141822261923541  0.0000
  O1     O1        0.389933563824961    0.623517832466722    0.154222193500345  0.0000
  O1     O1        0.868363674815805    0.220705816436100    0.884989218192385  0.0000
  O1     O1        0.643302102545865    0.732862162591128    0.900352826349978  0.0000
  O3     O3        0.877806695132362    0.613213605583202    0.884510421160433  0.0000
  O3     O3        0.629119546457305    0.336861132364308    0.901055572632293  0.0000
  O1     O1        0.147743296827298    0.735221506883953    0.140825734412058  0.0000
  O1     O1        0.363286366591707    0.219398343006826    0.148424360306846  0.0000
  O1     O1        0.673339744679041    0.512502635214831    0.121185256067241  0.0000
  O1     O1        0.853766148757526    0.437992811997519    0.109934104278075  0.0000
  O1     O1        0.348081754206324    0.439787324817967    0.931305330079609  0.0000
  O1     O1        0.164785049195253    0.521347340566516    0.921866196998534  0.0000
  O1     O1        0.745707069810940    0.195477706904700    0.058378494582559  0.0000
  O1     O1        0.774373798966123    0.757261086652399    0.059504776464283  0.0000
  O1     O1        0.235276563667013    0.205059025441717    0.984308250899466  0.0000
  O1     O1        0.276554404809296    0.756951385939881    0.985047464815864  0.0000
