data_c01168.vasp
_audit_creation_method             Generated by GULP
_audit_author_name                 Salvador R. G. Balestra
_symmetry_space_group_name_H-M     'P 1             '
_symmetry_Int_Tables_number        1

loop_
_symmetry_equiv_pos_site_id
_symmetry_equiv_pos_as_xyz
_cell_length_a                       17.7322
_cell_length_b                        7.8880
_cell_length_c                       10.2111
_cell_angle_alpha                   88.3786
_cell_angle_beta                    90.7944
_cell_angle_gamma                   89.6965

loop_
_atom_site_label
_atom_site_type_symbol
_atom_site_fract_x
_atom_site_fract_y
_atom_site_fract_z
_atom_site_charge
  Ge     Ge        0.052090000000021    0.000000000000000    0.372269999999958  0.0000
  Ge     Ge        0.447210097650812    0.029568298882579    0.402292333601007  0.0000
  Ge     Ge        0.940087316738520    0.022508685103385    0.615252292490643  0.0000
  Ge     Ge        0.948111350223060    0.006173652078667    0.114371280555943  0.0000
  Ge     Ge        0.448369620390915    0.033719520631795    0.933675881318567  0.0000
  Ge     Ge        0.054161759451971    0.006187725692582    0.862822903077699  0.0000
  Ge     Ge        0.174375918841497    0.275625713652569    0.303903557685150  0.0000
  Ge     Ge        0.333004696116846    0.731524703616702    0.306522590928315  0.0000
  Ge     Ge        0.822070521908412    0.308720663807626    0.731165985811816  0.0000
  Ge     Ge        0.655058313874884    0.765669184778729    0.739380696599011  0.0000
  Ge     Ge        0.836226721780947    0.714583601042313    0.731630099577266  0.0000
  Ge     Ge        0.641682084770880    0.360402100100883    0.734113137851369  0.0000
  Ge     Ge        0.151126706249444    0.686658167703101    0.300915330532481  0.0000
  Ge     Ge        0.642713039803533    0.342424814204462    0.053355383453593  0.0000
  Ge     Ge        0.848296053404951    0.689997362672697    0.049295761813988  0.0000
  Ge     Ge        0.149230095593981    0.690416049591013    0.983167142614323  0.0000
  Ge     Ge        0.330534199340576    0.740673665349253    0.982104454536729  0.0000
  Ge     Ge        0.173970500271649    0.278150322334117    0.988890453525272  0.0000
  Ge     Ge        0.665852204783396    0.744571883200603    0.056628832213883  0.0000
  Ge     Ge        0.824621559967386    0.289298049638941    0.050107351657593  0.0000
  Si     Si        0.540919524024222    0.060460158899752    0.663779856893087  0.0000
  Si     Si        0.559360991927365    0.018847802381095    0.172952303914950  0.0000
  Si     Si        0.344014277858236    0.345160941263092    0.301652331137161  0.0000
  Si     Si        0.343299563672047    0.354658805070953    0.992285685762183  0.0000
  O1     O1        0.124192094216196    0.139550674169935    0.401875319513665  0.0000
  O1     O1        0.384029452546169    0.869413827318733    0.398402413000988  0.0000
  O1     O1        0.875276916991144    0.180902805947089    0.636069304646155  0.0000
  O3     O3        0.599651705649667    0.906366269496452    0.646931145715172  0.0000
  O1     O1        0.897853301061097    0.829936788086751    0.639564170228827  0.0000
  O3     O3        0.581544320992369    0.239809063308764    0.640359069582090  0.0000
  O1     O1        0.087833541999937    0.797214343342811    0.391445355645624  0.0000
  O3     O3        0.410049300080350    0.212813037365448    0.329082052630719  0.0000
  O1     O1        0.971339102729400    0.030869029692786    0.456562295627166  0.0000
  O3     O3        0.470144871920641    0.050765587494298    0.565865554852061  0.0000
  O1     O1        0.024478263706346    0.039037385910935    0.210753329911808  0.0000
  O3     O3        0.530126473578811    0.996881743455734    0.320074032206894  0.0000
  O1     O1        0.022492943227712    0.038078495253437    0.704623013934178  0.0000
  O3     O3        0.513993048035765    0.052170306769612    0.813820294134236  0.0000
  O3     O3        0.580431869996759    0.213263048403775    0.137458758694068  0.0000
  O1     O1        0.913717654580879    0.802836035015829    0.134616452438236  0.0000
  O3     O3        0.411433400096920    0.231811179417667    0.964451147739109  0.0000
  O1     O1        0.084151615975415    0.799152469873432    0.888830465187184  0.0000
  O1     O1        0.379604103775468    0.892144083013767    0.895699480355965  0.0000
  O1     O1        0.128625251920160    0.139570153558778    0.890314053118410  0.0000
  O3     O3        0.630176319633895    0.895358086842490    0.158387254814226  0.0000
  O1     O1        0.874109864949824    0.142289754910218    0.140950739741156  0.0000
  O3     O3        0.492385667825523    0.958638094312643    0.076092439310826  0.0000
  O1     O1        0.976849262989987    0.045474654068868    0.955986676743990  0.0000
  O1     O1        0.133955127777261    0.473616915809857    0.307972591358833  0.0000
  O3     O3        0.369720533757933    0.529965922331488    0.343142563918704  0.0000
  O1     O1        0.826753590090692    0.514945430427252    0.672256215138631  0.0000
  O1     O1        0.645026863732832    0.565867154786583    0.676627039000115  0.0000
  O3     O3        0.266371374037660    0.284290461293165    0.366908986676025  0.0000
  O1     O1        0.241215997781823    0.728320408377769    0.355045169065926  0.0000
  O1     O1        0.727828918938985    0.259684398881511    0.730611336025425  0.0000
  O1     O1        0.749332421184645    0.814315351924573    0.732828669427279  0.0000
  O1     O1        0.172571797454397    0.200394951067162    0.147380517076961  0.0000
  O1     O1        0.337793188334248    0.793159617779643    0.144600065723341  0.0000
  O1     O1        0.854161919743556    0.292108035281181    0.890019203059449  0.0000
  O1     O1        0.628383692322841    0.765371996243191    0.900740666508577  0.0000
  O1     O1        0.873803581086229    0.695828142889147    0.887262034319152  0.0000
  O1     O1        0.612918251736725    0.367628646991803    0.894037640956724  0.0000
  O1     O1        0.142662915258071    0.758553393723439    0.140780814195549  0.0000
  O2     O2        0.319662297445474    0.369695833027749    0.146634460738928  0.0000
  O1     O1        0.649382087455669    0.541639962934741    0.116684880908840  0.0000
  O1     O1        0.841742058156558    0.487706379199762    0.110787040284084  0.0000
  O3     O3        0.368266662712078    0.542625158320768    0.949458201894265  0.0000
  O1     O1        0.132613417235132    0.476028509305507    0.980233671936318  0.0000
  O1     O1        0.730162771596192    0.247977497917165    0.055848620935958  0.0000
  O1     O1        0.760363401852871    0.783090060073127    0.050420733632784  0.0000
  O3     O3        0.265498396501347    0.294374263643456    0.927602524191840  0.0000
  O1     O1        0.238851610850226    0.735241158929742    0.930202056619490  0.0000
