data_c01152.vasp
_audit_creation_method             Generated by GULP
_audit_author_name                 Salvador R. G. Balestra
_symmetry_space_group_name_H-M     'P 1             '
_symmetry_Int_Tables_number        1

loop_
_symmetry_equiv_pos_site_id
_symmetry_equiv_pos_as_xyz
_cell_length_a                       17.5207
_cell_length_b                        7.8107
_cell_length_c                       10.2867
_cell_angle_alpha                   90.0116
_cell_angle_beta                    89.9666
_cell_angle_gamma                   88.7851

loop_
_atom_site_label
_atom_site_type_symbol
_atom_site_fract_x
_atom_site_fract_y
_atom_site_fract_z
_atom_site_charge
  Ge     Ge        0.052090000000021    0.000000000000000    0.372269999999958  0.0000
  Ge     Ge        0.452144981241907    0.939924234589347    0.378213896251443  0.0000
  Ge     Ge        0.947976543190653    0.946762823225113    0.625499579830381  0.0000
  Ge     Ge        0.951205866458965    0.938759657574135    0.115412425259303  0.0000
  Ge     Ge        0.444955771513654    0.939415560107379    0.870722516788089  0.0000
  Ge     Ge        0.059750614705362    0.998324812090105    0.867210296052908  0.0000
  Ge     Ge        0.150387234484007    0.312247520814903    0.297381831716466  0.0000
  Ge     Ge        0.355399449208829    0.628149079297382    0.294302418133686  0.0000
  Ge     Ge        0.824252605929841    0.230958520173451    0.735718643281617  0.0000
  Ge     Ge        0.669652014798868    0.708357443787640    0.734509877579711  0.0000
  Ge     Ge        0.852096716002008    0.632461556767186    0.739413956827601  0.0000
  Ge     Ge        0.641144907131339    0.306734201730719    0.738544932942540  0.0000
  Ge     Ge        0.176212718697751    0.718653245338456    0.294785490723054  0.0000
  Ge     Ge        0.329118767134478    0.220419423835410    0.294852512634341  0.0000
  Ge     Ge        0.643665491299787    0.307745450932589    0.053237284824132  0.0000
  Ge     Ge        0.846598503262534    0.629725030175371    0.058465242035398  0.0000
  Ge     Ge        0.328240926305487    0.232016973657169    0.980703836597974  0.0000
  Ge     Ge        0.175845403818959    0.704426442672604    0.981218455248819  0.0000
  Ge     Ge        0.666034136894386    0.711131999373379    0.051391528585684  0.0000
  Ge     Ge        0.824843170334431    0.226879402647083    0.050170400183640  0.0000
  Si     Si        0.552245275793961    0.992528793875434    0.628116635680238  0.0000
  Si     Si        0.546971191414666    0.000103890533998    0.121009241331224  0.0000
  Si     Si        0.354939879606161    0.627625208673254    0.985815293790757  0.0000
  Si     Si        0.149519145227935    0.309829955678285    0.987345919419464  0.0000
  O1     O1        0.083925200169670    0.205766749570782    0.386567539547958  0.0000
  O1     O1        0.420942795378499    0.734191510758805    0.386234764659703  0.0000
  O1     O1        0.870062397270638    0.079535545870550    0.643154442359701  0.0000
  O3     O3        0.625074426764641    0.868336411243649    0.645931857866010  0.0000
  O1     O1        0.922585694294873    0.741416387752652    0.661950583966555  0.0000
  O3     O3        0.573313374633529    0.187064459519326    0.659484799812652  0.0000
  O1     O1        0.126709970435298    0.855779084028916    0.394354507618812  0.0000
  O1     O1        0.377669345337997    0.083991270720309    0.396567854062516  0.0000
  O1     O1        0.974763529822776    0.956546127513722    0.464125289418503  0.0000
  O3     O3        0.527204270783946    0.980539891505966    0.478085029239690  0.0000
  O1     O1        0.027220450082400    0.978453718195478    0.210275024177978  0.0000
  O3     O3        0.478112777736028    0.967540300515407    0.216238344394598  0.0000
  O1     O1        0.027843105933258    0.007920447903761    0.709346802752593  0.0000
  O3     O3        0.480489623780556    0.932947663476580    0.713915776108370  0.0000
  O3     O3        0.580701835018426    0.188076390023072    0.143189665108749  0.0000
  O1     O1        0.913265729877940    0.740051495836176    0.142981909495497  0.0000
  O1     O1        0.371203371709360    0.086947369843347    0.878766902829459  0.0000
  O1     O1        0.133482674803521    0.850253979942309    0.879695126882609  0.0000
  O3     O3        0.414834796235537    0.734432821558388    0.903274182721979  0.0000
  O3     O3        0.087594403018992    0.202359950211751    0.910213479147012  0.0000
  O3     O3        0.613818449117973    0.857403456713962    0.141689154407167  0.0000
  O1     O1        0.877711718421116    0.085630702253426    0.139995365657483  0.0000
  O3     O3        0.518777357824025    0.993868263551236    0.971504668374834  0.0000
  O1     O1        0.981894199911168    0.940116784516475    0.955861168574131  0.0000
  O1     O1        0.163447760676540    0.513394535689588    0.353878393287145  0.0000
  O1     O1        0.341894138429452    0.427143779762286    0.350561900343176  0.0000
  O1     O1        0.841303586030648    0.431851747112820    0.674699625930138  0.0000
  O1     O1        0.651204414971565    0.507737023534984    0.673071747266186  0.0000
  O1     O1        0.232763983139651    0.187734280125557    0.299936847445859  0.0000
  O1     O1        0.272549241944233    0.751551392334502    0.296862886824191  0.0000
  O1     O1        0.727657966462270    0.199575992629395    0.735286093959163  0.0000
  O1     O1        0.765829799564112    0.742534898746309    0.729655446377185  0.0000
  O3     O3        0.122964665130889    0.333861229658396    0.135744471322409  0.0000
  O3     O3        0.384262443726685    0.609164070519886    0.133271173946493  0.0000
  O1     O1        0.857735920785824    0.214250361706125    0.892410187956548  0.0000
  O1     O1        0.637334363921356    0.718694977364437    0.891846024983337  0.0000
  O1     O1        0.875315606087543    0.605042446394006    0.899387926847655  0.0000
  O1     O1        0.612653161465194    0.335586667258279    0.896142358833548  0.0000
  O1     O1        0.143335608402670    0.735696217785965    0.136707046895665  0.0000
  O1     O1        0.360080786769164    0.200405863261266    0.136197384544285  0.0000
  O1     O1        0.653363026526345    0.508633280521662    0.115556126393329  0.0000
  O1     O1        0.834534972985405    0.428409744059682    0.117199223315901  0.0000
  O3     O3        0.346483616078512    0.438401261808500    0.927503336303522  0.0000
  O3     O3        0.157354335229794    0.498469806902819    0.926913577987627  0.0000
  O1     O1        0.728577108907677    0.192439406884041    0.048462903948707  0.0000
  O1     O1        0.761987239039323    0.747812516559669    0.058163292327962  0.0000
  O3     O3        0.230302789444655    0.207024815220094    0.981299648673062  0.0000
  O3     O3        0.273752769285625    0.728902784316331    0.984246407749274  0.0000
