data_c01230.vasp
_audit_creation_method             Generated by GULP
_audit_author_name                 Salvador R. G. Balestra
_symmetry_space_group_name_H-M     'P 1             '
_symmetry_Int_Tables_number        1

loop_
_symmetry_equiv_pos_site_id
_symmetry_equiv_pos_as_xyz
_cell_length_a                       17.4864
_cell_length_b                        7.8211
_cell_length_c                       10.2960
_cell_angle_alpha                   90.3327
_cell_angle_beta                    90.3994
_cell_angle_gamma                   88.5225

loop_
_atom_site_label
_atom_site_type_symbol
_atom_site_fract_x
_atom_site_fract_y
_atom_site_fract_z
_atom_site_charge
  Ge     Ge        0.052090000000021    0.000000000000000    0.372269999999958  0.0000
  Ge     Ge        0.456551752048477    0.942492151857098    0.383111637180236  0.0000
  Ge     Ge        0.949694265939145    0.949068818328421    0.628534082361502  0.0000
  Ge     Ge        0.452090585039821    0.935440308394418    0.876763536565604  0.0000
  Ge     Ge        0.059392620622780    0.998134450851307    0.876825689879709  0.0000
  Ge     Ge        0.151640808525208    0.313186889791748    0.304643605066806  0.0000
  Ge     Ge        0.359034748825440    0.628077753812339    0.303086958028449  0.0000
  Ge     Ge        0.828075909317663    0.235167114848009    0.738070943557454  0.0000
  Ge     Ge        0.673462851780332    0.713450502055976    0.742640328654630  0.0000
  Ge     Ge        0.856182931214075    0.634493022140486    0.742631293158938  0.0000
  Ge     Ge        0.644797422625447    0.312515536163291    0.745339371671401  0.0000
  Ge     Ge        0.177858042817193    0.716893159456844    0.299153726879980  0.0000
  Ge     Ge        0.331198864620035    0.223821919155588    0.305513531789416  0.0000
  Ge     Ge        0.651568765687559    0.306695516172896    0.059632543887716  0.0000
  Ge     Ge        0.854222636726208    0.634816676143817    0.060046426318785  0.0000
  Ge     Ge        0.330100937887516    0.219572641305829    0.988937280854943  0.0000
  Ge     Ge        0.177233173911986    0.701914203844790    0.985199866557097  0.0000
  Ge     Ge        0.360241618259085    0.620668699493552    0.987037521825287  0.0000
  Ge     Ge        0.671546213711086    0.709549218803194    0.058477981307807  0.0000
  Ge     Ge        0.835006160151349    0.232873618983080    0.051977929888308  0.0000
  Si     Si        0.556518923427031    0.999792356593913    0.633431624767794  0.0000
  Si     Si        0.553672258967746    0.001694399199470    0.128517100887249  0.0000
  Si     Si        0.954099608608910    0.941628973783693    0.118613638410770  0.0000
  Si     Si        0.152270262531322    0.306433100506073    0.994480335757373  0.0000
  O1     O1        0.083263251236653    0.205756063392459    0.386942315770203  0.0000
  O1     O1        0.424235643534796    0.738884192999745    0.394192732383416  0.0000
  O1     O1        0.871082587371072    0.081598739457008    0.643781695325726  0.0000
  O3     O3        0.629423503099799    0.875692246436446    0.656006028534699  0.0000
  O1     O1        0.925361402205940    0.743497878078115    0.664277103441697  0.0000
  O3     O3        0.577268408485834    0.194846777009105    0.663109966780387  0.0000
  O1     O1        0.128190991982689    0.859529661990569    0.394679135280025  0.0000
  O1     O1        0.381681958797634    0.085703344926051    0.403557035243218  0.0000
  O1     O1        0.977209995395264    0.957425845605652    0.468469920907397  0.0000
  O3     O3        0.532312812169215    0.982864795964473    0.483325876723689  0.0000
  O3     O3        0.025454563206200    0.975525248954119    0.209780156651912  0.0000
  O3     O3        0.484198443632749    0.970887492004810    0.222437722664101  0.0000
  O1     O1        0.026620280485266    0.012036573028522    0.719770400267970  0.0000
  O3     O3        0.484625906273791    0.944432154824889    0.718929582850483  0.0000
  O3     O3        0.590063829524449    0.186713389548824    0.150726075938345  0.0000
  O3     O3        0.919418545507349    0.755859143559734    0.144547105936167  0.0000
  O1     O1        0.371823230452315    0.064139940086986    0.894590807676674  0.0000
  O1     O1        0.130190427551211    0.843076920647530    0.884495012653447  0.0000
  O1     O1        0.427756294599412    0.727788566627216    0.902409993532428  0.0000
  O3     O3        0.089107078476063    0.200669115548538    0.918107060620690  0.0000
  O3     O3        0.619491299449489    0.855823573186168    0.149439316083647  0.0000
  O3     O3        0.887066896374588    0.084317074344453    0.140987830003396  0.0000
  O3     O3        0.524477955519985    0.998796522539237    0.979160290797029  0.0000
  O3     O3        0.981354944311342    0.944461260682186    0.969064595871194  0.0000
  O1     O1        0.163606000389414    0.514989734039620    0.361748205660756  0.0000
  O1     O1        0.344544945175262    0.429434138731515    0.362854998664214  0.0000
  O1     O1        0.844214758532839    0.435273309129511    0.676298510427138  0.0000
  O1     O1        0.654017052192066    0.513230353918929    0.680993166504251  0.0000
  O1     O1        0.234796953618171    0.190552889888158    0.312355520312535  0.0000
  O1     O1        0.274529172507824    0.748017280822169    0.300285047858639  0.0000
  O1     O1        0.731520369373504    0.205100898927564    0.742350889860397  0.0000
  O1     O1        0.769734545579593    0.745928063016060    0.738114745068256  0.0000
  O3     O3        0.126554162069431    0.336650535530892    0.142212127114090  0.0000
  O1     O1        0.390057624424743    0.606301609127765    0.145972425698561  0.0000
  O1     O1        0.864641095885783    0.221718179797249    0.893466436047210  0.0000
  O1     O1        0.641028226973715    0.720373344912143    0.899605964269591  0.0000
  O1     O1        0.881703421051774    0.604983806132049    0.901864311658449  0.0000
  O1     O1        0.617642410288254    0.335533278122731    0.904000962389952  0.0000
  O1     O1        0.145781761956950    0.732610889257330    0.140844214837184  0.0000
  O1     O1        0.361192139724421    0.204922527881433    0.146982865393357  0.0000
  O1     O1        0.659964227674495    0.508268251068420    0.122460224231893  0.0000
  O1     O1        0.847413934268675    0.432784231175198    0.120645281137361  0.0000
  O1     O1        0.350982571635968    0.417067801431574    0.927871421102493  0.0000
  O3     O3        0.163003934773284    0.492337456184758    0.932668900954759  0.0000
  O1     O1        0.738434042060939    0.198526319646066    0.054242676059243  0.0000
  O1     O1        0.767776608841507    0.745382780175391    0.062253170726154  0.0000
  O3     O3        0.231702093995400    0.197004915678693    0.990357174173184  0.0000
  O1     O1        0.273985666933957    0.731558568707193    0.980702194559063  0.0000
