data_c01237.vasp
_audit_creation_method             Generated by GULP
_audit_author_name                 Salvador R. G. Balestra
_symmetry_space_group_name_H-M     'P 1             '
_symmetry_Int_Tables_number        1

loop_
_symmetry_equiv_pos_site_id
_symmetry_equiv_pos_as_xyz
_cell_length_a                       17.4163
_cell_length_b                        7.8295
_cell_length_c                       10.3372
_cell_angle_alpha                   90.1464
_cell_angle_beta                    89.9975
_cell_angle_gamma                   88.0374

loop_
_atom_site_label
_atom_site_type_symbol
_atom_site_fract_x
_atom_site_fract_y
_atom_site_fract_z
_atom_site_charge
  Ge     Ge        0.052090000000021    0.000000000000000    0.372269999999958  0.0000
  Ge     Ge        0.453928449625755    0.939648485555156    0.421626652604934  0.0000
  Ge     Ge        0.948834743431600    0.941201472315552    0.625941324609518  0.0000
  Ge     Ge        0.061607239504851    0.996159920538550    0.870448583846790  0.0000
  Ge     Ge        0.149296095628793    0.314709306142782    0.302413880986002  0.0000
  Ge     Ge        0.361465177449081    0.626095168697386    0.310772110218457  0.0000
  Ge     Ge        0.828189941121580    0.230720175475569    0.742286184661979  0.0000
  Ge     Ge        0.671062311706970    0.712103548465191    0.752417989109957  0.0000
  Ge     Ge        0.854583916696807    0.630821532087405    0.743184368807483  0.0000
  Ge     Ge        0.644369481409238    0.310220000369224    0.753282906917523  0.0000
  Ge     Ge        0.179059788117557    0.716009133440661    0.300994103634017  0.0000
  Ge     Ge        0.331455623257145    0.225770653280956    0.311990634729801  0.0000
  Ge     Ge        0.652741877136760    0.303262764725202    0.064665208034909  0.0000
  Ge     Ge        0.859873792896038    0.627503549519440    0.058823599487220  0.0000
  Ge     Ge        0.340759200995567    0.221192126118742    0.998824226928314  0.0000
  Ge     Ge        0.183535006066350    0.708735698061413    0.986594760287524  0.0000
  Ge     Ge        0.366622349029782    0.622642807826370    0.996709260652049  0.0000
  Ge     Ge        0.156916157884018    0.305623526348207    0.988140286193675  0.0000
  Ge     Ge        0.676020424393428    0.706649193802379    0.067588733185185  0.0000
  Ge     Ge        0.837957510785341    0.226538372265144    0.053643067716857  0.0000
  Si     Si        0.553684952334344    0.997524129006326    0.674750216832588  0.0000
  Si     Si        0.561529364025871    0.996987177557875    0.176426203004797  0.0000
  Si     Si        0.958346334895740    0.934444123934793    0.117249030949397  0.0000
  Si     Si        0.461773989200990    0.931857948054421    0.927853720484322  0.0000
  O1     O1        0.082364632105810    0.205042280128061    0.388118076253890  0.0000
  O1     O1        0.427981958448858    0.733529111334144    0.398746248009252  0.0000
  O1     O1        0.871406980757595    0.078527332798157    0.646550794353033  0.0000
  O3     O3        0.624427282247353    0.862420087820119    0.655731578855382  0.0000
  O1     O1        0.922119872275622    0.737000939864921    0.657800021531566  0.0000
  O3     O3        0.581416686262863    0.189920175248185    0.663263803997168  0.0000
  O1     O1        0.129188795554739    0.860260632693651    0.395372285609879  0.0000
  O1     O1        0.375344985296834    0.074283151438088    0.407250015364740  0.0000
  O1     O1        0.975886617775276    0.955701049297258    0.466047397453262  0.0000
  O3     O3        0.485272008743651    0.961514824092709    0.579109702946161  0.0000
  O3     O3        0.028442768044520    0.972269450268239    0.209318146234412  0.0000
  O3     O3        0.527304428726303    0.993447548407372    0.319275556454496  0.0000
  O1     O1        0.027959410168332    0.993763361004187    0.714613729955082  0.0000
  O2     O2        0.527213501134784    0.968141862956818    0.823906134810850  0.0000
  O3     O3        0.589692890337431    0.187286105308198    0.154593935573833  0.0000
  O3     O3        0.926346898653253    0.746284728555998    0.141026148720621  0.0000
  O3     O3        0.390823455064384    0.066290207584540    0.911142708469710  0.0000
  O1     O1        0.138290728338194    0.854863120419320    0.887896925448698  0.0000
  O3     O3        0.433199017156136    0.740369209148009    0.913154897506905  0.0000
  O1     O1        0.090833962995082    0.199462393509323    0.899611700630611  0.0000
  O3     O3        0.631848516508695    0.860144637607490    0.164287195444875  0.0000
  O3     O3        0.889086758368234    0.073818532455848    0.140429718891900  0.0000
  O2     O2        0.495613698062340    0.950563257684376    0.072988459978146  0.0000
  O3     O3        0.985706519839645    0.941747061511845    0.968161319888892  0.0000
  O1     O1        0.161963219250654    0.514584065856400    0.361498917799441  0.0000
  O1     O1        0.346089643181123    0.427887400446151    0.372727654882882  0.0000
  O1     O1        0.841692267003387    0.431337536287402    0.679751420265130  0.0000
  O1     O1        0.652912867309565    0.510828160691860    0.692072236433426  0.0000
  O1     O1        0.234699266490741    0.195858741841076    0.305984082984499  0.0000
  O1     O1        0.276157660620618    0.744797219653097    0.306949961856192  0.0000
  O1     O1        0.731665033913380    0.200706552557693    0.753655196383083  0.0000
  O1     O1        0.767903288595988    0.743751306332019    0.744693473639147  0.0000
  O1     O1        0.122565777552795    0.329978077282280    0.142814244204716  0.0000
  O1     O1        0.394235254979679    0.600834620753976    0.155151575446367  0.0000
  O1     O1        0.867313315639525    0.217066950628142    0.894997965940318  0.0000
  O1     O1        0.642795666487566    0.719898679666785    0.911681238004590  0.0000
  O1     O1        0.885583750561506    0.603775881325191    0.899429520262736  0.0000
  O1     O1        0.615774769152602    0.327452627331215    0.911718933408656  0.0000
  O1     O1        0.149498308188947    0.727431323190010    0.142059678347281  0.0000
  O1     O1        0.368301395011881    0.211800291346286    0.157906110157583  0.0000
  O1     O1        0.661999647107225    0.504505979086738    0.127394433940937  0.0000
  O1     O1        0.854080194739060    0.425404064153808    0.119584024314224  0.0000
  O1     O1        0.358622101424694    0.420724902100852    0.935845229449701  0.0000
  O1     O1        0.170011651131482    0.505777746086653    0.927468643410853  0.0000
  O1     O1        0.740802868583646    0.197249156471665    0.058946730475148  0.0000
  O1     O1        0.772901664649931    0.737236408232931    0.066150947403779  0.0000
  O1     O1        0.243693030096361    0.192047413168491    0.989794247337706  0.0000
  O1     O1        0.280804806239393    0.736677948034064    0.990953225995593  0.0000
