data_c01207.vasp
_audit_creation_method             Generated by GULP
_audit_author_name                 Salvador R. G. Balestra
_symmetry_space_group_name_H-M     'P 1             '
_symmetry_Int_Tables_number        1

loop_
_symmetry_equiv_pos_site_id
_symmetry_equiv_pos_as_xyz
_cell_length_a                       17.5505
_cell_length_b                        7.8105
_cell_length_c                       10.4067
_cell_angle_alpha                   89.9710
_cell_angle_beta                    89.8635
_cell_angle_gamma                   88.6171

loop_
_atom_site_label
_atom_site_type_symbol
_atom_site_fract_x
_atom_site_fract_y
_atom_site_fract_z
_atom_site_charge
  Ge     Ge        0.052090000000021    0.000000000000000    0.372269999999958  0.0000
  Ge     Ge        0.451671662050161    0.957919555953085    0.396258255224164  0.0000
  Ge     Ge        0.945497680187643    0.990425667265644    0.624398333136451  0.0000
  Ge     Ge        0.952656692685950    0.989463393403913    0.113224345551900  0.0000
  Ge     Ge        0.453251808270325    0.984910044346698    0.897803546899279  0.0000
  Ge     Ge        0.060050969964638    0.019074925027277    0.862991968205883  0.0000
  Ge     Ge        0.147187361157602    0.317472030173628    0.285443127005212  0.0000
  Ge     Ge        0.358418102753933    0.645380524401562    0.299903015580295  0.0000
  Ge     Ge        0.654116432328267    0.668254876551030    0.716701970090856  0.0000
  Ge     Ge        0.667889587795284    0.265228613255339    0.726371148000808  0.0000
  Ge     Ge        0.176443940675915    0.719989169974944    0.300343280819753  0.0000
  Ge     Ge        0.328850197265603    0.241441088866950    0.282662860133116  0.0000
  Ge     Ge        0.667818167525599    0.264013742937960    0.038453366874135  0.0000
  Ge     Ge        0.826310009728892    0.721693860360472    0.038889273525144  0.0000
  Ge     Ge        0.329985845935632    0.264638358205868    0.971679467048659  0.0000
  Ge     Ge        0.178861931449204    0.739629295392488    0.988028460157581  0.0000
  Ge     Ge        0.360687471006177    0.664390115252459    0.989334066575113  0.0000
  Ge     Ge        0.147935953659669    0.337052846103630    0.973524539158032  0.0000
  Ge     Ge        0.644532889879581    0.672221312814434    0.032368235813108  0.0000
  Ge     Ge        0.850997868686784    0.308947846140594    0.040979201273343  0.0000
  Si     Si        0.555960124245711    0.984473466873895    0.643266808989783  0.0000
  Si     Si        0.552528317057119    0.992018040071092    0.143540087242959  0.0000
  Si     Si        0.848076884211517    0.302561250426527    0.738852494716227  0.0000
  Si     Si        0.832706813530317    0.705070113971737    0.734195744729213  0.0000
  O1     O1        0.083206679672339    0.206025451351562    0.375630895637173  0.0000
  O1     O1        0.423987903732009    0.749775818388185    0.392134445715224  0.0000
  O3     O3        0.902516512234390    0.190301086170151    0.647546165822954  0.0000
  O3     O3        0.594417379070245    0.797106439166031    0.624588450159808  0.0000
  O3     O3        0.884828110069240    0.821447142453910    0.645939283469654  0.0000
  O3     O3        0.621853816876830    0.122968397029561    0.628732722104875  0.0000
  O1     O1        0.128825564703398    0.863225827105724    0.398227726723764  0.0000
  O1     O1        0.371232995902810    0.080964218697382    0.370551387609523  0.0000
  O1     O1        0.973826906716893    0.977273087610993    0.467222829696031  0.0000
  O3     O3        0.486919360314252    0.010411477974274    0.546114572651116  0.0000
  O1     O1        0.023170588162198    0.944585175015560    0.218810659616515  0.0000
  O3     O3        0.523077569540094    0.003037467754734    0.288275608095680  0.0000
  O1     O1        0.028631294398209    0.979306633199105    0.709925208785534  0.0000
  O3     O3        0.524962820832162    0.008111103176699    0.788195721765948  0.0000
  O3     O3        0.624668035960829    0.112272081243691    0.131759291864208  0.0000
  O1     O1        0.876098292618859    0.857241606994669    0.131100288237564  0.0000
  O1     O1        0.375363181884898    0.118148604230536    0.873847674118903  0.0000
  O1     O1        0.141914720240816    0.901574221357761    0.895683872504789  0.0000
  O1     O1        0.424390581841946    0.777580912524159    0.900017172867048  0.0000
  O1     O1        0.083292747073906    0.230567982325328    0.882062808278823  0.0000
  O3     O3        0.574445348722187    0.795455326996140    0.106505325110621  0.0000
  O1     O1        0.917287030843581    0.196954396689257    0.128943559424861  0.0000
  O3     O3        0.486773048767575    0.055330575568199    0.046169874813344  0.0000
  O1     O1        0.988024969102072    0.955164069462041    0.961574900656134  0.0000
  O1     O1        0.127306897199283    0.532381836740113    0.295825412122463  0.0000
  O1     O1        0.378019348853888    0.429245912583063    0.295446280833074  0.0000
  O2     O2        0.841304269042018    0.502698609671872    0.697043570633844  0.0000
  O1     O1        0.653602813908086    0.464420022276281    0.659044306398703  0.0000
  O1     O1        0.238132391523589    0.277485030363263    0.340287130782555  0.0000
  O1     O1        0.267053540969571    0.677921165761370    0.356588198475320  0.0000
  O3     O3        0.764841452458292    0.222003994667320    0.734457471645740  0.0000
  O3     O3        0.744162578864404    0.755356837403331    0.716516621333753  0.0000
  O1     O1        0.140431698790833    0.255547894212000    0.127014308258514  0.0000
  O1     O1        0.365678446744127    0.729202615506416    0.147186541684728  0.0000
  O3     O3        0.881717949448128    0.291747204188193    0.881702446042127  0.0000
  O1     O1        0.622252133970808    0.661048946182628    0.872419565606985  0.0000
  O3     O3        0.857110135624847    0.732606522678106    0.880427985592170  0.0000
  O1     O1        0.636411976946652    0.258129380082799    0.882315557199895  0.0000
  O1     O1        0.184905331510185    0.798992015465797    0.146724810539838  0.0000
  O1     O1        0.320613057616271    0.183489877794768    0.124628469418229  0.0000
  O1     O1        0.649942933154584    0.469227179278194    0.094592836003038  0.0000
  O1     O1        0.842773352722267    0.514928802473960    0.091588223882292  0.0000
  O1     O1        0.381339190856256    0.449373897387793    0.978444355693028  0.0000
  O1     O1        0.127805248112040    0.553957436838464    0.976332264011414  0.0000
  O1     O1        0.763274075816616    0.217008008707666    0.047169042496995  0.0000
  O1     O1        0.730973074625640    0.768405183118691    0.047165764855947  0.0000
  O1     O1        0.239566700400868    0.309119860263902    0.916527312787865  0.0000
  O1     O1        0.269802596421586    0.697568382003298    0.933613196682836  0.0000
