data_c01262.vasp
_audit_creation_method             Generated by GULP
_audit_author_name                 Salvador R. G. Balestra
_symmetry_space_group_name_H-M     'P 1             '
_symmetry_Int_Tables_number        1

loop_
_symmetry_equiv_pos_site_id
_symmetry_equiv_pos_as_xyz
_cell_length_a                       17.7627
_cell_length_b                        7.8220
_cell_length_c                       10.3448
_cell_angle_alpha                   90.8708
_cell_angle_beta                    90.3906
_cell_angle_gamma                   90.2094

loop_
_atom_site_label
_atom_site_type_symbol
_atom_site_fract_x
_atom_site_fract_y
_atom_site_fract_z
_atom_site_charge
  Ge     Ge        0.052090000000021    0.000000000000000    0.372269999999958  0.0000
  Ge     Ge        0.453301878267052    0.041181686732350    0.371860232888190  0.0000
  Ge     Ge        0.556281677656800    0.028741346456485    0.118053396044813  0.0000
  Ge     Ge        0.947004283135120    0.001192768657110    0.117142988534746  0.0000
  Ge     Ge        0.446705735134551    0.017901800697041    0.872307037969171  0.0000
  Ge     Ge        0.050920305952214    0.992763073404457    0.864469022659752  0.0000
  Ge     Ge        0.174036934871310    0.278263197695055    0.260870161482697  0.0000
  Ge     Ge        0.330467041503254    0.756562006640578    0.255597054400053  0.0000
  Ge     Ge        0.831525432657311    0.286398344091613    0.686676999077326  0.0000
  Ge     Ge        0.664918003415545    0.734330326599612    0.690569225952239  0.0000
  Ge     Ge        0.847859084209289    0.690006329601632    0.685375901997858  0.0000
  Ge     Ge        0.151469132059948    0.689671729090381    0.257649716713834  0.0000
  Ge     Ge        0.352115480018785    0.345359091361433    0.259833590692941  0.0000
  Ge     Ge        0.648893052440092    0.343458286253317    0.999304937095466  0.0000
  Ge     Ge        0.853191658685414    0.683706441092270    0.999768749594648  0.0000
  Ge     Ge        0.148734980661557    0.676584569894199    0.941471332196321  0.0000
  Ge     Ge        0.329498501041914    0.732606361495673    0.941601770565951  0.0000
  Ge     Ge        0.172310356089352    0.270108975303649    0.946333187378363  0.0000
  Ge     Ge        0.673966557100884    0.748666000770279    0.002451247072965  0.0000
  Ge     Ge        0.826402562718812    0.277009781392833    0.001244170065014  0.0000
  Si     Si        0.946224115242892    0.000273528912561    0.616560407582825  0.0000
  Si     Si        0.553142824473086    0.026914949637570    0.626094657271473  0.0000
  Si     Si        0.653512716042647    0.337344827340037    0.690064198590646  0.0000
  Si     Si        0.349052679713787    0.331418044306757    0.952028605019066  0.0000
  O1     O1        0.123774616606461    0.144846294514679    0.357151042861797  0.0000
  O1     O1        0.381332063308159    0.897209573372293    0.348980578773742  0.0000
  O3     O3        0.881871714036105    0.141761538424215    0.594336079738967  0.0000
  O3     O3        0.610680018541799    0.871809276901486    0.599252407374761  0.0000
  O3     O3        0.907824377722229    0.815624802164373    0.595391541159138  0.0000
  O2     O2        0.597035760452286    0.208564120220517    0.612668204650816  0.0000
  O1     O1        0.086219513950981    0.797900838291176    0.347652319076766  0.0000
  O1     O1        0.420050886970676    0.243498160359722    0.346086884740943  0.0000
  O3     O3        0.018781978575376    0.021409998741643    0.528947999952733  0.0000
  O3     O3        0.482423454128964    0.021410676287236    0.531234863022445  0.0000
  O1     O1        0.976978846924548    0.035843956061143    0.272742797083021  0.0000
  O1     O1        0.529705697066168    0.008073629180532    0.275893294226667  0.0000
  O3     O3        0.975077447175277    0.022791893371890    0.764439839606533  0.0000
  O3     O3        0.522694346547062    0.010331483160445    0.771412112657840  0.0000
  O1     O1        0.580379261323323    0.235343415249541    0.078133639747394  0.0000
  O1     O1        0.919106847364285    0.792679843503090    0.089229449039701  0.0000
  O3     O3        0.405767169131068    0.218755746952035    0.867111212294020  0.0000
  O1     O1        0.084282464533229    0.787880541567562    0.852307271959634  0.0000
  O1     O1        0.380070272546176    0.861604758217957    0.841989495425926  0.0000
  O1     O1        0.127202657144025    0.127732388882200    0.846592362749236  0.0000
  O1     O1        0.632088656255009    0.897016192833287    0.099366779675239  0.0000
  O1     O1        0.871388227080120    0.132583876576437    0.094365104641895  0.0000
  O1     O1        0.480709562011624    0.972046896268989    0.023430561773214  0.0000
  O1     O1        0.020421315874475    0.045835757895230    0.017253907513832  0.0000
  O1     O1        0.163104507692228    0.487265128258012    0.313180008562699  0.0000
  O1     O1        0.342348304254999    0.551494679051887    0.312042237699466  0.0000
  O1     O1        0.845992165376683    0.485523794203698    0.624107394465252  0.0000
  O3     O3        0.655112899168876    0.525362294633186    0.629871485125745  0.0000
  O1     O1        0.268538263744354    0.235034241388009    0.270573270714494  0.0000
  O1     O1        0.235794180867959    0.799534356219114    0.261636169625750  0.0000
  O3     O3        0.735255853152589    0.249642492008570    0.685635534256116  0.0000
  O1     O1        0.759487249629166    0.779509133921210    0.682834186166847  0.0000
  O1     O1        0.142559690999223    0.258902376948189    0.104143749409239  0.0000
  O1     O1        0.359709225489536    0.763871240068865    0.098282598804632  0.0000
  O1     O1        0.859090652806463    0.273239013719271    0.845066679862774  0.0000
  O1     O1        0.637487885876026    0.755865426730736    0.848035034175755  0.0000
  O1     O1        0.881473282121881    0.676939958570612    0.840784705292070  0.0000
  O3     O3        0.626665935066909    0.363912013121430    0.836692808903067  0.0000
  O1     O1        0.120072696027902    0.681703434376530    0.100098934551007  0.0000
  O3     O3        0.379549053792926    0.345152807030341    0.098660494150037  0.0000
  O1     O1        0.659213100198618    0.545971695825679    0.061291975611339  0.0000
  O1     O1        0.841556116229713    0.482827876646540    0.058763615713694  0.0000
  O3     O3        0.340077398009180    0.519267695667919    0.894759952684716  0.0000
  O1     O1        0.154483062401304    0.470597624681410    0.887300481078238  0.0000
  O1     O1        0.732045901935804    0.233100639524809    0.007378458774187  0.0000
  O1     O1        0.768523602458434    0.789544512414562    0.998717826849539  0.0000
  O3     O3        0.268430399794478    0.235691537002078    0.952633971861999  0.0000
  O1     O1        0.235253981393568    0.776229545419983    0.934054934639077  0.0000
