data_c01245.vasp
_audit_creation_method             Generated by GULP
_audit_author_name                 Salvador R. G. Balestra
_symmetry_space_group_name_H-M     'P 1             '
_symmetry_Int_Tables_number        1

loop_
_symmetry_equiv_pos_site_id
_symmetry_equiv_pos_as_xyz
_cell_length_a                       17.4788
_cell_length_b                        7.8464
_cell_length_c                       10.2315
_cell_angle_alpha                   89.8986
_cell_angle_beta                    89.9838
_cell_angle_gamma                   91.6092

loop_
_atom_site_label
_atom_site_type_symbol
_atom_site_fract_x
_atom_site_fract_y
_atom_site_fract_z
_atom_site_charge
  Ge     Ge        0.052090000000021    0.000000000000000    0.372269999999958  0.0000
  Ge     Ge        0.449733511515053    0.052666144785212    0.375100367973396  0.0000
  Ge     Ge        0.556006450669825    0.989942595868273    0.125152944186728  0.0000
  Ge     Ge        0.946968762809576    0.053409433544446    0.121551561113230  0.0000
  Ge     Ge        0.448353219676848    0.050476633799673    0.874034965782273  0.0000
  Ge     Ge        0.054867913508418    0.991625598525190    0.871783640966179  0.0000
  Ge     Ge        0.173995440923780    0.285724384116578    0.258550388865729  0.0000
  Ge     Ge        0.326399259495516    0.768110161208677    0.256582620274715  0.0000
  Ge     Ge        0.853063755707627    0.351764766629902    0.684870808317731  0.0000
  Ge     Ge        0.647185237771166    0.679908182006693    0.686399941363943  0.0000
  Ge     Ge        0.831320916941287    0.751944293886557    0.688131514397060  0.0000
  Ge     Ge        0.668871433490709    0.278749130524949    0.691202520065745  0.0000
  Ge     Ge        0.145208633623543    0.689284042076724    0.250874556330754  0.0000
  Ge     Ge        0.357836931379369    0.365464358421787    0.257703024802127  0.0000
  Ge     Ge        0.675786957367032    0.275970234879037    0.008241267501557  0.0000
  Ge     Ge        0.826202230009512    0.765493180524075    0.006086528484835  0.0000
  Ge     Ge        0.355764353158746    0.369122077035174    0.942246575668949  0.0000
  Ge     Ge        0.171229900461670    0.293202658182434    0.944097800543456  0.0000
  Ge     Ge        0.644857067336118    0.675429025102694    0.004259742603969  0.0000
  Ge     Ge        0.857225471581240    0.367391916444634    0.001733093435592  0.0000
  Si     Si        0.950501611202587    0.038794656563609    0.622742670246417  0.0000
  Si     Si        0.549655597640068    0.989415160884666    0.623961665260499  0.0000
  Si     Si        0.153487072751629    0.685130699560504    0.940307936479972  0.0000
  Si     Si        0.330707890848170    0.759845657612263    0.947144344063095  0.0000
  O1     O1        0.129474810437561    0.136272894844388    0.356017378527959  0.0000
  O1     O1        0.371564210710269    0.922175463289150    0.346519531928666  0.0000
  O3     O3        0.917482265446425    0.226433000965874    0.602646874520963  0.0000
  O3     O3        0.583460755591088    0.803633263409417    0.600365264036649  0.0000
  O3     O3        0.882753824399107    0.899992363414992    0.595616365060481  0.0000
  O3     O3        0.616748134277456    0.131132951092874    0.600190404865175  0.0000
  O1     O1        0.075870831249671    0.795607485806702    0.331943445585848  0.0000
  O1     O1        0.423524196616454    0.258918715891461    0.349424605009776  0.0000
  O3     O3        0.023977794711042    0.007057167112956    0.534999802896079  0.0000
  O3     O3        0.476233697254212    0.026781899312223    0.537657818959195  0.0000
  O1     O1        0.974877505040495    0.057963657605707    0.281838376059900  0.0000
  O1     O1        0.527307583181493    0.996415479620201    0.285135935917228  0.0000
  O3     O3        0.976428207621127    0.015573951651822    0.773678191951261  0.0000
  O3     O3        0.523364769166651    0.998470854875145    0.775873648177548  0.0000
  O1     O1        0.634932665534255    0.122153128557398    0.105081969334887  0.0000
  O1     O1        0.868573820134048    0.919717537622138    0.100558789330138  0.0000
  O1     O1        0.413698241179398    0.249931921718465    0.845246905290667  0.0000
  O3     O3        0.100986976136131    0.799705916375329    0.850406285051577  0.0000
  O3     O3        0.371851372588449    0.903780467898048    0.860727185346325  0.0000
  O1     O1        0.120747193523276    0.154555200334095    0.846774551401931  0.0000
  O1     O1        0.577113066246172    0.782822505197291    0.088329333493654  0.0000
  O1     O1        0.926029245405142    0.259961189389291    0.082523534044458  0.0000
  O1     O1        0.481241474608683    0.056563753906578    0.031891588570460  0.0000
  O1     O1        0.022322048824330    0.986038520296429    0.029824978419987  0.0000
  O1     O1        0.155878132779279    0.488734993996227    0.312682119960539  0.0000
  O1     O1        0.345199290409395    0.567875913824940    0.315366314750033  0.0000
  O1     O1        0.844956469708094    0.552757949507015    0.621472263303774  0.0000
  O1     O1        0.654445323698048    0.478182744712302    0.625077861478196  0.0000
  O1     O1        0.270659000551600    0.257174415608357    0.259250548153191  0.0000
  O1     O1        0.230443139123743    0.802625113501169    0.263935021646815  0.0000
  O1     O1        0.765496363084383    0.245326101909875    0.685191176261776  0.0000
  O1     O1        0.734721910538272    0.785857574411037    0.684174431243690  0.0000
  O1     O1        0.138891400286023    0.264657974658361    0.101739205500201  0.0000
  O3     O3        0.359843128843090    0.775500457062027    0.096205807427713  0.0000
  O1     O1        0.884374106959217    0.387491942935479    0.841150803741549  0.0000
  O1     O1        0.616960449824743    0.651109318466679    0.844392022134419  0.0000
  O1     O1        0.860143796047836    0.768384218582921    0.848273757172378  0.0000
  O1     O1        0.639852517647072    0.264477681560794    0.851429913205524  0.0000
  O3     O3        0.121044023266494    0.668708887338252    0.087135803277068  0.0000
  O1     O1        0.389986320218126    0.375069045773318    0.099348209890932  0.0000
  O1     O1        0.658035141136204    0.476683062303178    0.068461267074141  0.0000
  O1     O1        0.843961235215524    0.564712580076099    0.067319141892124  0.0000
  O3     O3        0.350408508755307    0.576397927310146    0.887052425840010  0.0000
  O3     O3        0.157743835671879    0.497332257401396    0.882492289779742  0.0000
  O1     O1        0.772501295765552    0.249638935606848    0.003508514808152  0.0000
  O1     O1        0.729427383309436    0.793449259432767    0.005374450085510  0.0000
  O1     O1        0.267666209707541    0.265761840609175    0.944542145759822  0.0000
  O2     O2        0.238455509834122    0.775005857912559    0.951127727274619  0.0000
