data_c01200.vasp
_audit_creation_method             Generated by GULP
_audit_author_name                 Salvador R. G. Balestra
_symmetry_space_group_name_H-M     'P 1             '
_symmetry_Int_Tables_number        1

loop_
_symmetry_equiv_pos_site_id
_symmetry_equiv_pos_as_xyz
_cell_length_a                       17.7055
_cell_length_b                        7.8655
_cell_length_c                       10.0514
_cell_angle_alpha                   89.9052
_cell_angle_beta                    90.0263
_cell_angle_gamma                   92.3629

loop_
_atom_site_label
_atom_site_type_symbol
_atom_site_fract_x
_atom_site_fract_y
_atom_site_fract_z
_atom_site_charge
  Ge     Ge        0.052090000000021    0.000000000000000    0.372269999999958  0.0000
  Ge     Ge        0.456879378121141    0.073154963773982    0.402295028615133  0.0000
  Ge     Ge        0.942832341678653    0.052712599728493    0.617760644525479  0.0000
  Ge     Ge        0.949793771231886    0.057651683242647    0.114900682531564  0.0000
  Ge     Ge        0.447749826387177    0.053985961430005    0.900891204951990  0.0000
  Ge     Ge        0.054193864674799    0.993581374789723    0.861301305839899  0.0000
  Ge     Ge        0.175483430967520    0.291172218259687    0.304797175820603  0.0000
  Ge     Ge        0.331446731937219    0.775576888239960    0.293057831247321  0.0000
  Ge     Ge        0.848898545074541    0.367804229116042    0.723961303320242  0.0000
  Ge     Ge        0.649022252178174    0.708180203582079    0.730425189870139  0.0000
  Ge     Ge        0.152576767506513    0.692656094720524    0.305220674939945  0.0000
  Ge     Ge        0.355858741044585    0.374581108131044    0.299882910809545  0.0000
  Ge     Ge        0.667365244480640    0.307343716221914    0.038196810657070  0.0000
  Ge     Ge        0.826159566284752    0.763599146414194    0.051095968335867  0.0000
  Ge     Ge        0.354782132145477    0.369684056998395    0.977184819897331  0.0000
  Ge     Ge        0.145483046579089    0.682648568386346    0.978151018295515  0.0000
  Ge     Ge        0.325060804811677    0.765827938796691    0.966116518064541  0.0000
  Ge     Ge        0.174307389388682    0.281999836280916    0.981790593610800  0.0000
  Ge     Ge        0.642142354160173    0.702798054708187    0.046343984493749  0.0000
  Ge     Ge        0.843865974932648    0.357114862122395    0.058258387090486  0.0000
  Si     Si        0.559583890786016    0.023861707999504    0.659801411949085  0.0000
  Si     Si        0.548909930132153    0.006276937699929    0.145326182706111  0.0000
  Si     Si        0.832267901980941    0.761319025271912    0.740611763453582  0.0000
  Si     Si        0.674741405096418    0.331217692854159    0.710635231508406  0.0000
  O1     O1        0.123314551642555    0.151323045725124    0.401806676049872  0.0000
  O1     O1        0.385533090838947    0.923331995940319    0.378376676327567  0.0000
  O1     O1        0.915551892469759    0.257145670222778    0.642077718805544  0.0000
  O3     O3        0.601245899473313    0.850317229513488    0.632247247430327  0.0000
  O3     O3        0.866971423903725    0.915089167113162    0.653186100150703  0.0000
  O2     O2        0.620940011768355    0.181266386313342    0.651683234921236  0.0000
  O1     O1        0.088065872542713    0.802693742461422    0.394440125972635  0.0000
  O1     O1        0.421475639297336    0.270745830141722    0.391734311056912  0.0000
  O1     O1        0.969584741961966    0.032232603383264    0.454201272373297  0.0000
  O3     O3        0.490103507795863    0.048087496587956    0.562849477645438  0.0000
  O1     O1        0.027568387359056    0.017287068296671    0.205739406623577  0.0000
  O3     O3        0.533755023549234    0.053905192641118    0.297311189404848  0.0000
  O1     O1        0.024722789292938    0.005052818105892    0.698555830881632  0.0000
  O3     O3        0.527239967432738    0.021568134953716    0.809246562132265  0.0000
  O3     O3        0.606539152836202    0.139556800958620    0.070058636159102  0.0000
  O1     O1        0.876738906747637    0.909410931009087    0.142248270271615  0.0000
  O1     O1        0.418145749835125    0.257263518162411    0.886266842414765  0.0000
  O1     O1        0.076702386507087    0.787246794769556    0.896043120436664  0.0000
  O1     O1        0.373952351247260    0.911544695388414    0.869346090963377  0.0000
  O1     O1        0.132312662280869    0.126432762427373    0.886223663957407  0.0000
  O3     O3        0.581751961739787    0.819869477165820    0.141968880682669  0.0000
  O1     O1        0.912063476517595    0.253369421398119    0.141917592757567  0.0000
  O3     O3        0.470208304385313    0.015671667126331    0.067270689477555  0.0000
  O1     O1        0.978730941186593    0.057492688562837    0.951300394893661  0.0000
  O1     O1        0.164283969056195    0.493558354699749    0.366888308829161  0.0000
  O1     O1        0.344433649852927    0.575448994522046    0.358718059752775  0.0000
  O3     O3        0.855408606715199    0.581848448212513    0.680268100743149  0.0000
  O3     O3        0.647021424189293    0.510717009854534    0.654004147096959  0.0000
  O1     O1        0.270739460931840    0.258817062457283    0.305164726743367  0.0000
  O1     O1        0.236651981036834    0.812149167871395    0.305354432703459  0.0000
  O3     O3        0.759751595598645    0.294151404215046    0.670906890611222  0.0000
  O3     O3        0.742304752264121    0.774940873903930    0.750455122939124  0.0000
  O1     O1        0.142716516790743    0.273864988387924    0.143524550214421  0.0000
  O1     O1        0.355367522853761    0.772311256146856    0.128509795456669  0.0000
  O1     O1        0.862413241844974    0.342799535181334    0.890106413990829  0.0000
  O1     O1        0.609160195362603    0.706399168330655    0.885359620201598  0.0000
  O3     O3        0.863316142561437    0.776301834950292    0.890664984731899  0.0000
  O3     O3        0.674187396695358    0.359334654960058    0.870019318559684  0.0000
  O1     O1        0.122472760994018    0.668149694425431    0.143344295909147  0.0000
  O1     O1        0.386896600827463    0.387307947859781    0.138013123251694  0.0000
  O1     O1        0.640755090373242    0.497311342013076    0.105224444229096  0.0000
  O1     O1        0.840834517905072    0.562571052292445    0.110180295354718  0.0000
  O1     O1        0.341947227400756    0.564014920492351    0.907916422139251  0.0000
  O1     O1        0.155589105139432    0.480571747083453    0.918651093359172  0.0000
  O1     O1        0.756085889785158    0.259823285808078    0.087331134558900  0.0000
  O1     O1        0.731465476886683    0.796136040305587    0.055564443638849  0.0000
  O1     O1        0.269896159478228    0.255007531654251    0.983156523675628  0.0000
  O1     O1        0.230251831579094    0.797202275549056    0.961045065567977  0.0000
