data_c01232.vasp
_audit_creation_method             Generated by GULP
_audit_author_name                 Salvador R. G. Balestra
_symmetry_space_group_name_H-M     'P 1             '
_symmetry_Int_Tables_number        1

loop_
_symmetry_equiv_pos_site_id
_symmetry_equiv_pos_as_xyz
_cell_length_a                       17.5427
_cell_length_b                        7.8275
_cell_length_c                       10.1744
_cell_angle_alpha                   88.9027
_cell_angle_beta                    90.6094
_cell_angle_gamma                   91.4248

loop_
_atom_site_label
_atom_site_type_symbol
_atom_site_fract_x
_atom_site_fract_y
_atom_site_fract_z
_atom_site_charge
  Ge     Ge        0.052090000000021    0.000000000000000    0.372269999999958  0.0000
  Ge     Ge        0.445388458708562    0.059431690912877    0.370965585906892  0.0000
  Ge     Ge        0.942860427834460    0.072158770462599    0.616738772054710  0.0000
  Ge     Ge        0.453280309944438    0.077497220798596    0.878733557819317  0.0000
  Ge     Ge        0.043980869755975    0.013446667504139    0.878106975004836  0.0000
  Ge     Ge        0.174032748926973    0.288302772800513    0.260022336154389  0.0000
  Ge     Ge        0.327239046725717    0.764785707275655    0.266639376895424  0.0000
  Ge     Ge        0.846057456385338    0.382342095058659    0.693399746240513  0.0000
  Ge     Ge        0.640278617010448    0.709765578484244    0.700974736295146  0.0000
  Ge     Ge        0.822005415250253    0.784752001810356    0.697371773943921  0.0000
  Ge     Ge        0.664435110106698    0.305863763441876    0.702517586621974  0.0000
  Ge     Ge        0.144735877102230    0.686739032881896    0.264911672711056  0.0000
  Ge     Ge        0.669047732436697    0.301058739487764    0.021459566729793  0.0000
  Ge     Ge        0.828506305454543    0.777184173727234    0.015638667821752  0.0000
  Ge     Ge        0.350630392906706    0.385430493684287    0.940692675395186  0.0000
  Ge     Ge        0.146820224646938    0.702010351688118    0.943643772613888  0.0000
  Ge     Ge        0.327164420963962    0.789442990031944    0.949335241858814  0.0000
  Ge     Ge        0.171697960443950    0.299291521198775    0.939922450964730  0.0000
  Ge     Ge        0.644466327392789    0.704405936616668    0.018748724472387  0.0000
  Ge     Ge        0.852779450109988    0.373697415256335    0.012405408501216  0.0000
  Si     Si        0.548904409902335    0.022923838129548    0.622525839883139  0.0000
  Si     Si        0.554986863833928    0.011441167123223    0.133882979048402  0.0000
  Si     Si        0.944680110070089    0.062621813654172    0.129159404751663  0.0000
  Si     Si        0.351328440747422    0.370403568533823    0.255464558876363  0.0000
  O1     O1        0.131777193430610    0.126537688612077    0.348996635624801  0.0000
  O1     O1        0.375387481421952    0.905012863214187    0.366449955823448  0.0000
  O1     O1        0.907435962671544    0.273273451347802    0.596936229018354  0.0000
  O3     O3        0.578730231962280    0.832301455586607    0.605612693210988  0.0000
  O1     O1        0.869767064932539    0.924702601830504    0.595258602036417  0.0000
  O3     O3        0.616783080965895    0.162750147428700    0.601858844486767  0.0000
  O1     O1        0.076987841996688    0.792988700495146    0.350008805608303  0.0000
  O3     O3        0.414251697285937    0.261554421233157    0.332384493240925  0.0000
  O1     O1        0.022308243927034    0.029249732339567    0.530806553634544  0.0000
  O3     O3        0.476404289136059    0.063038536094113    0.533730026763745  0.0000
  O3     O3        0.972871034196894    0.057457294651232    0.279814064322472  0.0000
  O3     O3        0.525050291461867    0.012684397248125    0.281946469428421  0.0000
  O1     O1        0.967629122766675    0.054580040027559    0.782135162055226  0.0000
  O3     O3        0.526694985527958    0.038813970388328    0.776343638169517  0.0000
  O3     O3        0.626512556822081    0.142003792299049    0.116374783465255  0.0000
  O3     O3        0.873758034803613    0.931607302857854    0.108759749649918  0.0000
  O1     O1        0.419311552378107    0.280941380962686    0.859114630832378  0.0000
  O1     O1        0.080864561922673    0.814499394280124    0.855439757749404  0.0000
  O1     O1        0.378448771620581    0.934679894427237    0.857487269877829  0.0000
  O1     O1        0.116589530629663    0.161727265124013    0.850396632541390  0.0000
  O3     O3        0.579943193774383    0.819732285640068    0.104732318108355  0.0000
  O3     O3        0.920167853959045    0.255232311256056    0.095349704604538  0.0000
  O3     O3        0.485267292676059    0.066166034792426    0.040171998291680  0.0000
  O3     O3        0.016212331161710    0.011795580834216    0.042200103096776  0.0000
  O1     O1        0.153601045427025    0.482182151834897    0.326132376235272  0.0000
  O3     O3        0.341048026123948    0.554421388669549    0.319396817628095  0.0000
  O1     O1        0.832610529968292    0.583681853245903    0.633680491932645  0.0000
  O1     O1        0.649628407886047    0.509961494003148    0.640170653119905  0.0000
  O3     O3        0.271883268505728    0.262294698445185    0.259605007501441  0.0000
  O1     O1        0.231068350903886    0.796046756569737    0.273261050578220  0.0000
  O1     O1        0.760262074866282    0.269529014777195    0.701307984167242  0.0000
  O1     O1        0.726450575553203    0.820476898043877    0.704864526659977  0.0000
  O1     O1        0.142344098165884    0.280561903142403    0.100546088655382  0.0000
  O1     O1        0.359032333660859    0.801088494503516    0.109816921989023  0.0000
  O1     O1        0.880513748413341    0.397576511642959    0.852025257227290  0.0000
  O1     O1        0.610397117256377    0.686703733178217    0.860632386460242  0.0000
  O1     O1        0.858485402056097    0.792224948909099    0.855660366301276  0.0000
  O1     O1        0.634182781223106    0.293822318041981    0.863082818847845  0.0000
  O1     O1        0.117646251964010    0.671317958450414    0.103403189343940  0.0000
  O3     O3        0.375187996169594    0.405200648834031    0.105682180118907  0.0000
  O1     O1        0.653191156330613    0.500920761453054    0.082483587290789  0.0000
  O1     O1        0.846879087165215    0.574734354011343    0.076047882509469  0.0000
  O1     O1        0.339669198842899    0.589263881502055    0.884386518055511  0.0000
  O1     O1        0.160103016477178    0.505411342869856    0.879978297322066  0.0000
  O1     O1        0.765419542987027    0.270482993513949    0.019440002541868  0.0000
  O1     O1        0.732095153651976    0.806971217330543    0.018859470376016  0.0000
  O1     O1        0.267544278342990    0.263801831467491    0.930948055592133  0.0000
  O1     O1        0.230921039135608    0.822130110072680    0.947285067146885  0.0000
