data_c01255.vasp
_audit_creation_method             Generated by GULP
_audit_author_name                 Salvador R. G. Balestra
_symmetry_space_group_name_H-M     'P 1             '
_symmetry_Int_Tables_number        1

loop_
_symmetry_equiv_pos_site_id
_symmetry_equiv_pos_as_xyz
_cell_length_a                       17.5633
_cell_length_b                        7.8399
_cell_length_c                       10.1344
_cell_angle_alpha                   88.9928
_cell_angle_beta                    90.0894
_cell_angle_gamma                   91.5159

loop_
_atom_site_label
_atom_site_type_symbol
_atom_site_fract_x
_atom_site_fract_y
_atom_site_fract_z
_atom_site_charge
  Ge     Ge        0.052090000000021    0.000000000000000    0.372269999999958  0.0000
  Ge     Ge        0.446425401971102    0.058859384171998    0.399516042157978  0.0000
  Ge     Ge        0.555557558978544    0.010835932728701    0.151453974779321  0.0000
  Ge     Ge        0.947475093186505    0.064147750670072    0.115687886411364  0.0000
  Ge     Ge        0.449277318191058    0.074494286294671    0.897021533938357  0.0000
  Ge     Ge        0.048844687524549    0.013556131709444    0.855728740411807  0.0000
  Ge     Ge        0.173802842909201    0.286062344475416    0.289614095303582  0.0000
  Ge     Ge        0.328571555801345    0.762824737477281    0.290641615827393  0.0000
  Ge     Ge        0.851918386927903    0.370233789125881    0.721857643749000  0.0000
  Ge     Ge        0.643735441002482    0.706158298848226    0.717321921804421  0.0000
  Ge     Ge        0.828480352706306    0.772974931511737    0.720574879135220  0.0000
  Ge     Ge        0.668705652531261    0.304548308071688    0.718751694048285  0.0000
  Ge     Ge        0.146782289631548    0.685585705968242    0.299677882244155  0.0000
  Ge     Ge        0.826314763641445    0.774193362704216    0.038914283853066  0.0000
  Ge     Ge        0.350840562645668    0.383689826250017    0.966706057391695  0.0000
  Ge     Ge        0.144186556829567    0.701620590397070    0.978227411006753  0.0000
  Ge     Ge        0.325284540104376    0.787317232154718    0.972080676556866  0.0000
  Ge     Ge        0.171352062038405    0.296538874399751    0.969137843668852  0.0000
  Ge     Ge        0.644451749272251    0.694980002051417    0.034125377769202  0.0000
  Ge     Ge        0.848302497507668    0.374602660625465    0.043125586396850  0.0000
  Si     Si        0.943513285653386    0.063290537361458    0.608292639853703  0.0000
  Si     Si        0.550540256421816    0.019616087052635    0.647769936095776  0.0000
  Si     Si        0.351401330019621    0.366527989375800    0.280557082993987  0.0000
  Si     Si        0.671010570688251    0.299883538073316    0.032152527171414  0.0000
  O1     O1        0.129015379638340    0.138031591349917    0.389760657560083  0.0000
  O1     O1        0.378325995256346    0.899818395385668    0.390066268148118  0.0000
  O3     O3        0.918648411832163    0.253975152735163    0.638874906579985  0.0000
  O3     O3        0.582854086950278    0.832569564610818    0.624793730614285  0.0000
  O3     O3        0.872827980030376    0.932625132809678    0.627618103271089  0.0000
  O3     O3        0.618605415455415    0.158865595891067    0.625190552641266  0.0000
  O1     O1        0.083620665156794    0.796831066593811    0.393127509367772  0.0000
  O3     O3        0.411933688976347    0.258378338986621    0.362447228388534  0.0000
  O3     O3        0.971865343161372    0.052538195492111    0.457571190533396  0.0000
  O3     O3        0.476464273389431    0.059795226800096    0.563496886389934  0.0000
  O1     O1        0.024896040646236    0.022524214550732    0.208269643902532  0.0000
  O1     O1        0.527259198029945    0.022055986309527    0.312593238434142  0.0000
  O3     O3        0.017099933670505    0.011164192520725    0.693526129936329  0.0000
  O3     O3        0.526596224301689    0.032981481046524    0.801707941580682  0.0000
  O3     O3        0.629852549242848    0.154950025490098    0.120323272843360  0.0000
  O1     O1        0.875131113942047    0.913625671579590    0.136096633771385  0.0000
  O1     O1        0.416781102994623    0.278434934091401    0.877466497633361  0.0000
  O1     O1        0.076484676812769    0.809462065758378    0.892454600391882  0.0000
  O1     O1        0.374217303131843    0.931576380757462    0.874975983311499  0.0000
  O1     O1        0.124833580275644    0.154265834826579    0.870015870091850  0.0000
  O1     O1        0.583017068533183    0.804174768624119    0.128826580697722  0.0000
  O1     O1        0.908405655620077    0.260276584802992    0.140103802032935  0.0000
  O1     O1        0.477249426691054    0.055954306829125    0.059283201702227  0.0000
  O1     O1        0.974816142867956    0.070521137626550    0.951848697720739  0.0000
  O1     O1        0.156124050871412    0.481823941521069    0.356511600382605  0.0000
  O3     O3        0.340353465822624    0.551559677642544    0.342275752873618  0.0000
  O1     O1        0.845377094334363    0.574490588416822    0.658291978263822  0.0000
  O1     O1        0.651291896637730    0.505814343778616    0.655933756868448  0.0000
  O3     O3        0.271265171146861    0.259985387154411    0.282190395551768  0.0000
  O1     O1        0.232818642824192    0.797003724520989    0.298914462126908  0.0000
  O1     O1        0.764112996325746    0.268680089184528    0.710383198546074  0.0000
  O1     O1        0.732406514730232    0.804443478150159    0.720439064195250  0.0000
  O1     O1        0.140232012197897    0.274408491109159    0.130096775199528  0.0000
  O1     O1        0.359313291010532    0.796305872336140    0.131843659591810  0.0000
  O1     O1        0.880025615021565    0.391343032914486    0.882288172408013  0.0000
  O1     O1        0.610025060335440    0.689208338390552    0.875943740389179  0.0000
  O1     O1        0.861331907598352    0.785953222526503    0.879720757561450  0.0000
  O3     O3        0.639542225252274    0.297041031383877    0.882597545420316  0.0000
  O1     O1        0.115292635359922    0.675704212623942    0.139181618743931  0.0000
  O3     O3        0.379149887058297    0.396365320988059    0.131094931827244  0.0000
  O3     O3        0.656811627300277    0.487249553266606    0.090427723528191  0.0000
  O1     O1        0.840035443284487    0.572677290164229    0.104704298656266  0.0000
  O1     O1        0.338961173070315    0.586126031846577    0.909788578709041  0.0000
  O1     O1        0.156571425065615    0.503147850175750    0.915110589622530  0.0000
  O3     O3        0.760661666329159    0.267200959666921    0.030615256792408  0.0000
  O1     O1        0.730486212643073    0.804958273395507    0.033763256793103  0.0000
  O1     O1        0.267336152782058    0.264289694558612    0.963125136451626  0.0000
  O1     O1        0.229041711372448    0.818296192928505    0.974506288096979  0.0000
