data_c01263.vasp
_audit_creation_method             Generated by GULP
_audit_author_name                 Salvador R. G. Balestra
_symmetry_space_group_name_H-M     'P 1             '
_symmetry_Int_Tables_number        1

loop_
_symmetry_equiv_pos_site_id
_symmetry_equiv_pos_as_xyz
_cell_length_a                       17.7490
_cell_length_b                        7.8251
_cell_length_c                       10.3734
_cell_angle_alpha                   91.0249
_cell_angle_beta                    90.3322
_cell_angle_gamma                   90.6854

loop_
_atom_site_label
_atom_site_type_symbol
_atom_site_fract_x
_atom_site_fract_y
_atom_site_fract_z
_atom_site_charge
  Ge     Ge        0.052090000000021    0.000000000000000    0.372269999999958  0.0000
  Ge     Ge        0.455065716702514    0.048409303985326    0.374287251510340  0.0000
  Ge     Ge        0.559001103911783    0.040062383098463    0.120216930587905  0.0000
  Ge     Ge        0.945815896742243    0.019381119820536    0.117788634073591  0.0000
  Ge     Ge        0.452344151403983    0.030147588334170    0.869733029738776  0.0000
  Ge     Ge        0.051990115149946    0.001106593578982    0.869235240061208  0.0000
  Ge     Ge        0.175340066775985    0.282769782277509    0.260067132270946  0.0000
  Ge     Ge        0.331624207384825    0.762092570539161    0.261057130459222  0.0000
  Ge     Ge        0.836394184051247    0.292590279931960    0.695811641767565  0.0000
  Ge     Ge        0.667879993451618    0.736693824524960    0.689438074318686  0.0000
  Ge     Ge        0.849946958966907    0.697583480226195    0.686148556075728  0.0000
  Ge     Ge        0.152197598595317    0.691985136072873    0.263698054224560  0.0000
  Ge     Ge        0.354715104457761    0.352580440885819    0.263424622984261  0.0000
  Ge     Ge        0.652935588757298    0.355875286681211    0.006660431344546  0.0000
  Ge     Ge        0.354790404164004    0.347184127378896    0.949025501404126  0.0000
  Ge     Ge        0.149846453732467    0.687346556327367    0.949587301536817  0.0000
  Ge     Ge        0.329731758866182    0.754761613288047    0.947288197182336  0.0000
  Ge     Ge        0.175060894718392    0.279747663250058    0.945777227719886  0.0000
  Ge     Ge        0.675853674506664    0.761088672702346    0.001277578872276  0.0000
  Ge     Ge        0.832038517818796    0.305423823285516    0.006726252029716  0.0000
  Si     Si        0.949120105548204    0.007686082955166    0.619321768928067  0.0000
  Si     Si        0.557764530976404    0.025952613809005    0.625120512323571  0.0000
  Si     Si        0.657148941071874    0.338204834432904    0.699218138123283  0.0000
  Si     Si        0.851343727148565    0.707327223189361    0.993023511801572  0.0000
  O1     O1        0.123826081944197    0.144728892385267    0.350847790272748  0.0000
  O1     O1        0.382575655915102    0.903893203893241    0.354238694026179  0.0000
  O3     O3        0.883717084707446    0.146671884913460    0.600871913553556  0.0000
  O3     O3        0.613993501327393    0.870177944628571    0.595378986681751  0.0000
  O3     O3        0.911975232501067    0.820417923169800    0.598673812389189  0.0000
  O2     O2        0.603177383570130    0.207041416643973    0.618102579507896  0.0000
  O1     O1        0.087738915999558    0.798823635933416    0.355828311301097  0.0000
  O1     O1        0.420787516221188    0.249427923791294    0.353133752794245  0.0000
  O3     O3        0.020021591290201    0.032431646912483    0.528838373486800  0.0000
  O3     O3        0.486797223714150    0.027968138074876    0.531531135520904  0.0000
  O1     O1        0.975302106051161    0.024662820620786    0.274927785910416  0.0000
  O1     O1        0.530559849618016    0.013803562507141    0.275922408999031  0.0000
  O3     O3        0.977459695351087    0.029527904448036    0.766871108452313  0.0000
  O3     O3        0.527114495403758    0.999298857742939    0.769005452634925  0.0000
  O1     O1        0.585196439238552    0.248092941259956    0.088491762075007  0.0000
  O3     O3        0.910643945171056    0.817990345269173    0.075602834584433  0.0000
  O1     O1        0.418718384564330    0.233919663239059    0.859911289134453  0.0000
  O1     O1        0.085759716650438    0.796930937458599    0.859753088648552  0.0000
  O1     O1        0.378100126030227    0.888731887385016    0.848507595769787  0.0000
  O1     O1        0.126383213468338    0.141004277709993    0.847093838589199  0.0000
  O1     O1        0.636321093962005    0.913773372965342    0.095933476310196  0.0000
  O1     O1        0.880698164048563    0.178513547216125    0.108168831107121  0.0000
  O1     O1        0.484906988294926    0.984869839853444    0.022093855915859  0.0000
  O1     O1        0.021978656737349    0.054170220414321    0.022210717967284  0.0000
  O1     O1        0.163913066840859    0.489368274706567    0.317600783506875  0.0000
  O1     O1        0.343536716727346    0.557743949027195    0.317601448552765  0.0000
  O1     O1        0.851354826372698    0.490607854900937    0.631476317359231  0.0000
  O3     O3        0.658016877150387    0.524374457810513    0.636731182756083  0.0000
  O1     O1        0.270106882009010    0.241835471264880    0.267402326430150  0.0000
  O1     O1        0.236883081871213    0.802606773047485    0.266644275940883  0.0000
  O3     O3        0.739968848709202    0.257332625269612    0.700440398940861  0.0000
  O1     O1        0.762017330083689    0.784525666883419    0.675041773966464  0.0000
  O1     O1        0.144859328387167    0.270968670319699    0.103238511459165  0.0000
  O1     O1        0.361547205756195    0.770301101867390    0.104443050286260  0.0000
  O1     O1        0.865686074244254    0.278820173328459    0.853065428623748  0.0000
  O1     O1        0.640986932387465    0.762030546883777    0.846495123353022  0.0000
  O3     O3        0.879099548832799    0.690419198118358    0.845961100528778  0.0000
  O3     O3        0.627774297042286    0.360357648069956    0.844411581203193  0.0000
  O1     O1        0.119745964374280    0.685671304968473    0.106932623033717  0.0000
  O1     O1        0.385698039402524    0.353774894914296    0.106576458685287  0.0000
  O1     O1        0.658739261484985    0.562192785545170    0.063351101975935  0.0000
  O3     O3        0.841361280859914    0.520351497461135    0.051500722278021  0.0000
  O1     O1        0.343220541914760    0.547697746831150    0.892087037410302  0.0000
  O1     O1        0.161290623726448    0.484677495165579    0.891472675589010  0.0000
  O1     O1        0.738135854827630    0.256079468315840    0.017409983110575  0.0000
  O3     O3        0.771584374799869    0.802901871912991    0.992180802766124  0.0000
  O1     O1        0.269621584789724    0.238725563392436    0.945641313179550  0.0000
  O1     O1        0.235206614250244    0.795557238550048    0.947305905308283  0.0000
