data_c01220.vasp
_audit_creation_method             Generated by GULP
_audit_author_name                 Salvador R. G. Balestra
_symmetry_space_group_name_H-M     'P 1             '
_symmetry_Int_Tables_number        1

loop_
_symmetry_equiv_pos_site_id
_symmetry_equiv_pos_as_xyz
_cell_length_a                       17.4827
_cell_length_b                        7.8306
_cell_length_c                       10.3370
_cell_angle_alpha                   90.2660
_cell_angle_beta                    89.5534
_cell_angle_gamma                   91.6214

loop_
_atom_site_label
_atom_site_type_symbol
_atom_site_fract_x
_atom_site_fract_y
_atom_site_fract_z
_atom_site_charge
  Ge     Ge        0.052090000000021    0.000000000000000    0.372269999999958  0.0000
  Ge     Ge        0.449890252269866    0.055324322645178    0.368697855385893  0.0000
  Ge     Ge        0.948068232166118    0.058046501943962    0.625323822381985  0.0000
  Ge     Ge        0.943000328529253    0.062095318218138    0.130017769717415  0.0000
  Ge     Ge        0.050477925423947    0.997865101771442    0.879562071304836  0.0000
  Ge     Ge        0.176098197406004    0.285704172881919    0.258768550457267  0.0000
  Ge     Ge        0.327029063964607    0.771630037698619    0.264684951825999  0.0000
  Ge     Ge        0.846975137539018    0.368649708693520    0.698332258245380  0.0000
  Ge     Ge        0.642144055897486    0.694833959080663    0.701945799700874  0.0000
  Ge     Ge        0.823915457608130    0.772393875101224    0.698845801212729  0.0000
  Ge     Ge        0.664561455444850    0.289630911241802    0.704529057590880  0.0000
  Ge     Ge        0.145070155164993    0.686054161678859    0.256400945581789  0.0000
  Ge     Ge        0.358498466533508    0.372061023087215    0.260852708590546  0.0000
  Ge     Ge        0.665025381759473    0.302446437419303    0.018189503436502  0.0000
  Ge     Ge        0.824283770542009    0.774386156506361    0.011231890986339  0.0000
  Ge     Ge        0.358818490401143    0.370995560756980    0.947231514669831  0.0000
  Ge     Ge        0.152939526029717    0.688742747391302    0.940416934287946  0.0000
  Ge     Ge        0.334820023532166    0.773272882618403    0.950438282646270  0.0000
  Ge     Ge        0.176650158710755    0.287228446498960    0.945599265437372  0.0000
  Ge     Ge        0.849749502042502    0.374429527580386    0.014907301036924  0.0000
  Si     Si        0.549169304522762    0.003551379841629    0.622948874681789  0.0000
  Si     Si        0.554679218234972    0.004855219007943    0.120346319431672  0.0000
  Si     Si        0.454127925808685    0.062014994056720    0.875295183237887  0.0000
  Si     Si        0.643686986682263    0.697534645622549    0.006290499311926  0.0000
  O1     O1        0.130370615095353    0.132212499758389    0.349334153231893  0.0000
  O1     O1        0.370319858059397    0.925080490806113    0.358509202066103  0.0000
  O1     O1        0.911881093678476    0.258054452737786    0.608018293120968  0.0000
  O3     O3        0.578751321566142    0.811932524824938    0.612625636650881  0.0000
  O1     O1        0.874792857264463    0.910086327850550    0.601588463085086  0.0000
  O3     O3        0.618136687304720    0.141906982149787    0.605789568323847  0.0000
  O1     O1        0.075542194380193    0.793262632847012    0.338444990981731  0.0000
  O1     O1        0.425751873046762    0.262393507051752    0.344234420331813  0.0000
  O1     O1        0.026205399825715    0.018243565800757    0.533033667868023  0.0000
  O3     O3        0.482276587647885    0.036235282824958    0.525030764636227  0.0000
  O1     O1        0.972538402723969    0.057318205665956    0.287919917596483  0.0000
  O3     O3        0.520580781316038    0.990282187379260    0.263209114860521  0.0000
  O1     O1        0.974786689320038    0.040959623064686    0.785771890173392  0.0000
  O2     O2        0.520129929204570    0.029285202067347    0.771279834010135  0.0000
  O3     O3        0.618846413599331    0.155377315997016    0.117458211860937  0.0000
  O1     O1        0.863261159823659    0.931941335960489    0.105658094708551  0.0000
  O3     O3        0.423018031753978    0.251236148266562    0.859137877209402  0.0000
  O1     O1        0.087951934003800    0.799221430098823    0.853636523754366  0.0000
  O3     O3        0.385379672779429    0.923502817650623    0.860137431151716  0.0000
  O1     O1        0.124630225401105    0.144667102912484    0.855394174654880  0.0000
  O2     O2        0.587596636454155    0.819194093889476    0.086747240118058  0.0000
  O1     O1        0.917867750223934    0.267641636572776    0.096633834457719  0.0000
  O2     O2        0.487209139807341    0.049148070422667    0.020972834096002  0.0000
  O1     O1        0.019324727627332    0.999170050656684    0.038723468147971  0.0000
  O1     O1        0.157244247719933    0.486270288625971    0.318988481862395  0.0000
  O1     O1        0.343943992969612    0.570690719504078    0.324493858006906  0.0000
  O1     O1        0.835176913427603    0.568276244130377    0.638893054447045  0.0000
  O1     O1        0.649937664085265    0.491914948500850    0.643940161885841  0.0000
  O1     O1        0.272897130730131    0.256987456383705    0.260426819578518  0.0000
  O1     O1        0.230393430552790    0.801395717554929    0.263798781862192  0.0000
  O1     O1        0.760880052242230    0.255215254422088    0.701367061959918  0.0000
  O1     O1        0.727689835140145    0.807675024790274    0.697783695285223  0.0000
  O1     O1        0.143185508610482    0.272435726032124    0.102602839188887  0.0000
  O1     O1        0.362177875411964    0.784467373972672    0.109027579917562  0.0000
  O1     O1        0.877268727131946    0.388618755602787    0.855588536103230  0.0000
  O3     O3        0.612353008453048    0.671864114114064    0.861778423404557  0.0000
  O1     O1        0.858051083370580    0.789717245419084    0.854880139986222  0.0000
  O1     O1        0.634036873804044    0.276909722415167    0.862825126329542  0.0000
  O1     O1        0.120623374166661    0.663247913602067    0.097174504390075  0.0000
  O1     O1        0.388750458462110    0.396306397358874    0.103688887214485  0.0000
  O3     O3        0.649127903421127    0.511690378051455    0.070090526022918  0.0000
  O1     O1        0.844507689952537    0.578807462054879    0.074520808446582  0.0000
  O1     O1        0.349760432633943    0.571868160206054    0.886590221988675  0.0000
  O1     O1        0.165553360610994    0.488180033498089    0.880890803717160  0.0000
  O1     O1        0.761428696977236    0.271936763617306    0.025733685262571  0.0000
  O3     O3        0.726198544238562    0.791870468641659    0.999733280764427  0.0000
  O1     O1        0.273259056332231    0.256310198918903    0.947543031591009  0.0000
  O1     O1        0.238288860518902    0.805376248317170    0.943229488903411  0.0000
