data_c01225.vasp
_audit_creation_method             Generated by GULP
_audit_author_name                 Salvador R. G. Balestra
_symmetry_space_group_name_H-M     'P 1             '
_symmetry_Int_Tables_number        1

loop_
_symmetry_equiv_pos_site_id
_symmetry_equiv_pos_as_xyz
_cell_length_a                       17.5360
_cell_length_b                        7.8263
_cell_length_c                       10.2162
_cell_angle_alpha                   90.8637
_cell_angle_beta                    89.3936
_cell_angle_gamma                   88.4177

loop_
_atom_site_label
_atom_site_type_symbol
_atom_site_fract_x
_atom_site_fract_y
_atom_site_fract_z
_atom_site_charge
  Ge     Ge        0.052090000000021    0.000000000000000    0.372269999999958  0.0000
  Ge     Ge        0.450936299611475    0.946040844046955    0.390319287443463  0.0000
  Ge     Ge        0.946198385614283    0.928760971408604    0.620955197853719  0.0000
  Ge     Ge        0.950587870789383    0.937774757923064    0.117207230349456  0.0000
  Ge     Ge        0.057393164608694    0.990205440069076    0.863621091871076  0.0000
  Ge     Ge        0.149512633545402    0.312952981922824    0.301805075229795  0.0000
  Ge     Ge        0.358295067261823    0.630386353334163    0.302047961033228  0.0000
  Ge     Ge        0.826400929392782    0.219111574029726    0.741659913706081  0.0000
  Ge     Ge        0.667676647978710    0.686738997250457    0.733332134441107  0.0000
  Ge     Ge        0.851652887579533    0.617581681104786    0.733610009074548  0.0000
  Ge     Ge        0.177242872362708    0.715343182767067    0.298201017281128  0.0000
  Ge     Ge        0.329924938634627    0.226287868293870    0.301422175915520  0.0000
  Ge     Ge        0.644144702552040    0.303744902313646    0.056646443600977  0.0000
  Ge     Ge        0.845611142226748    0.630657077183048    0.055761561302766  0.0000
  Ge     Ge        0.334057067623414    0.220713658125871    0.982888174439915  0.0000
  Ge     Ge        0.178602459787112    0.706359001439695    0.981215267992511  0.0000
  Ge     Ge        0.361520451487555    0.625487745438053    0.985660639277093  0.0000
  Ge     Ge        0.151395025276564    0.303526637245267    0.982872092292021  0.0000
  Ge     Ge        0.664119227541265    0.708943857583373    0.050873923577627  0.0000
  Ge     Ge        0.825092503282365    0.227276639512442    0.057712922002902  0.0000
  Si     Si        0.557814995737375    0.983597722228244    0.634557756569731  0.0000
  Si     Si        0.545567925829858    0.999957424065796    0.127273600546282  0.0000
  Si     Si        0.450575437493005    0.933561036764993    0.874723970171625  0.0000
  Si     Si        0.646597665770458    0.293461986377762    0.747646325461541  0.0000
  O1     O1        0.083924160822168    0.203955575297190    0.392152694150763  0.0000
  O1     O1        0.419556986882271    0.742034824287940    0.400044800562566  0.0000
  O1     O1        0.866518377201193    0.055189193629071    0.651882123907868  0.0000
  O3     O3        0.621119338404151    0.833255333572207    0.635519854519489  0.0000
  O1     O1        0.920758095639103    0.722716711730720    0.649769377472311  0.0000
  O2     O2        0.590362149146488    0.168790895654828    0.670106594380882  0.0000
  O1     O1        0.126906522660620    0.857414228898837    0.396357450297267  0.0000
  O1     O1        0.375780598008253    0.089704555209668    0.405430056639866  0.0000
  O1     O1        0.972344009524620    0.953833365058041    0.459473755583487  0.0000
  O3     O3        0.525924228351601    0.992759696217343    0.488823892006930  0.0000
  O1     O1        0.028074608500172    0.976716922758385    0.208702387561603  0.0000
  O3     O3        0.478709568339497    0.970759530270979    0.227699001567880  0.0000
  O1     O1        0.026297876527314    0.985544255166075    0.704310333819640  0.0000
  O2     O2        0.486346500229548    0.941422339572463    0.728940560687766  0.0000
  O3     O3        0.578191325159696    0.189377449838372    0.142989610388636  0.0000
  O1     O1        0.910872180962929    0.741869743851653    0.142719864182339  0.0000
  O3     O3        0.378544924696212    0.063406931877912    0.886594591208760  0.0000
  O1     O1        0.134319998368547    0.853048120543961    0.883706082538382  0.0000
  O3     O3        0.426102088704942    0.740195788154816    0.895593681556433  0.0000
  O1     O1        0.084116991279241    0.195476763398053    0.897886038002503  0.0000
  O3     O3        0.613408531490060    0.859147480141032    0.143791511646206  0.0000
  O1     O1        0.878929395024422    0.089456672909138    0.147412969914540  0.0000
  O2     O2        0.514581830455548    0.986319953707466    0.978660677009745  0.0000
  O1     O1        0.979993657582185    0.934419411315903    0.955347106686219  0.0000
  O1     O1        0.162870544698639    0.513982238770347    0.360815718890617  0.0000
  O1     O1        0.342969265662772    0.431929863406497    0.360167096183375  0.0000
  O1     O1        0.846997789320663    0.411652945846320    0.673756296620493  0.0000
  O3     O3        0.652603837272911    0.476940243747501    0.680265594695490  0.0000
  O1     O1        0.233761687208612    0.193127257671537    0.300275971490069  0.0000
  O1     O1        0.273319856450715    0.748129555324510    0.296800230124804  0.0000
  O3     O3        0.728675594534904    0.198232062677022    0.752045499017904  0.0000
  O1     O1        0.763552435522324    0.718953557513518    0.721678994059512  0.0000
  O1     O1        0.120403218525213    0.328253391303498    0.142123681564158  0.0000
  O1     O1        0.392706045302841    0.611470190264292    0.143912812976015  0.0000
  O1     O1        0.859293144200828    0.209615738857117    0.899006496619092  0.0000
  O1     O1        0.635765690708255    0.717168135808552    0.890501947821124  0.0000
  O1     O1        0.875237030305614    0.604488802457697    0.895352953035056  0.0000
  O3     O3        0.617022169645341    0.327543864017769    0.894696164433318  0.0000
  O1     O1        0.144616683970749    0.724950478822304    0.139545472221191  0.0000
  O1     O1        0.363187211616546    0.209681126868120    0.142231896729454  0.0000
  O1     O1        0.650323222066567    0.508320531083811    0.114935060251568  0.0000
  O1     O1        0.834047562356076    0.432543843698173    0.118588756338539  0.0000
  O1     O1        0.352652313910403    0.421752185818761    0.924761279936711  0.0000
  O1     O1        0.162883973647356    0.503597046394106    0.920922857788452  0.0000
  O1     O1        0.729144789986839    0.190349698676192    0.062505902754626  0.0000
  O1     O1        0.759957569679863    0.745034487502392    0.055070156717905  0.0000
  O1     O1        0.237494276995131    0.191885936196502    0.977921716295596  0.0000
  O1     O1        0.275220111494805    0.734137449957782    0.984649013369349  0.0000
