data_c01244.vasp
_audit_creation_method             Generated by GULP
_audit_author_name                 Salvador R. G. Balestra
_symmetry_space_group_name_H-M     'P 1             '
_symmetry_Int_Tables_number        1

loop_
_symmetry_equiv_pos_site_id
_symmetry_equiv_pos_as_xyz
_cell_length_a                       17.4910
_cell_length_b                        7.8150
_cell_length_c                       10.2463
_cell_angle_alpha                   89.6233
_cell_angle_beta                    90.0203
_cell_angle_gamma                   91.6004

loop_
_atom_site_label
_atom_site_type_symbol
_atom_site_fract_x
_atom_site_fract_y
_atom_site_fract_z
_atom_site_charge
  Ge     Ge        0.052090000000021    0.000000000000000    0.372269999999958  0.0000
  Ge     Ge        0.450215661038851    0.054683978936254    0.367049804975582  0.0000
  Ge     Ge        0.553326974070107    0.000149575267459    0.113335273542259  0.0000
  Ge     Ge        0.944947821946421    0.064721927759961    0.125255667778599  0.0000
  Ge     Ge        0.449528172711174    0.071427162880576    0.860210413766383  0.0000
  Ge     Ge        0.056096467595204    0.008547764632555    0.878032290121485  0.0000
  Ge     Ge        0.176180413146474    0.284481368057649    0.250875376756175  0.0000
  Ge     Ge        0.327158654323842    0.772228393141763    0.257982824229859  0.0000
  Ge     Ge        0.857078673722511    0.367752280850222    0.687945638127774  0.0000
  Ge     Ge        0.651242863443312    0.694748588735060    0.676071644807375  0.0000
  Ge     Ge        0.834195803030944    0.770718936779305    0.686661171359170  0.0000
  Ge     Ge        0.672984831297427    0.293705327514254    0.685904920047496  0.0000
  Ge     Ge        0.144654119587386    0.690222061538071    0.255202636484589  0.0000
  Ge     Ge        0.357528812204586    0.369146418296164    0.246353338976873  0.0000
  Ge     Ge        0.674962177965471    0.287188607212653    0.002354110044673  0.0000
  Ge     Ge        0.824356784379169    0.780042021635061    0.004599126620522  0.0000
  Ge     Ge        0.350275837570925    0.381713566251985    0.926265605346918  0.0000
  Ge     Ge        0.328539006106413    0.779711498743488    0.943419823484925  0.0000
  Ge     Ge        0.643984885899059    0.686849816840644    0.994267493106356  0.0000
  Ge     Ge        0.856286539610595    0.379403210273067    0.003983657772598  0.0000
  Si     Si        0.955215918001812    0.057552720306335    0.623899424098570  0.0000
  Si     Si        0.553843895910961    0.007085270681822    0.615232677126269  0.0000
  Si     Si        0.149220252870399    0.696427451008413    0.949431552185707  0.0000
  Si     Si        0.172266366111828    0.304068338932130    0.941795207869201  0.0000
  O1     O1        0.130245861349509    0.130328338500210    0.341010265994833  0.0000
  O1     O1        0.371845147886952    0.920539581191603    0.355645670879252  0.0000
  O3     O3        0.921642030182597    0.245297307414120    0.603781746799043  0.0000
  O3     O3        0.586005875554362    0.818739572673038    0.592927088160365  0.0000
  O3     O3        0.887796994037196    0.917423074292548    0.596286811486022  0.0000
  O3     O3        0.622482552989577    0.145331135269659    0.592678246399318  0.0000
  O1     O1        0.077024430544644    0.792533066685095    0.344036754625515  0.0000
  O1     O1        0.426723128684583    0.260428543814395    0.327906188038335  0.0000
  O3     O3        0.028193639463702    0.025256631821871    0.535559230746654  0.0000
  O3     O3        0.481040418570807    0.047060628104169    0.528260104169773  0.0000
  O1     O1        0.973121954660964    0.054698968423241    0.285169303263245  0.0000
  O1     O1        0.524684913784394    0.990566321441260    0.273011373736761  0.0000
  O3     O3        0.980373374768505    0.036689640342758    0.775159413618809  0.0000
  O3     O3        0.526284153366484    0.020162758540091    0.766140162255260  0.0000
  O1     O1        0.632636250462311    0.133102253834136    0.098382458701138  0.0000
  O1     O1        0.866354138437555    0.933103584723425    0.100139427424875  0.0000
  O1     O1        0.412102958135802    0.269626330909839    0.832728822695770  0.0000
  O3     O3        0.096737045985319    0.809035804606993    0.856153154893192  0.0000
  O1     O1        0.373186486722316    0.928696050723056    0.846930416440040  0.0000
  O3     O3        0.123107732085737    0.174708859411405    0.853108794681977  0.0000
  O1     O1        0.572963541056108    0.793876623398922    0.069091961423485  0.0000
  O1     O1        0.922842391215137    0.273166663611699    0.092369653970012  0.0000
  O1     O1        0.480220255697154    0.075061218832605    0.019908488662491  0.0000
  O1     O1        0.021326807756272    0.003432690530724    0.033729450826367  0.0000
  O1     O1        0.156325184081884    0.484867573029306    0.308901037766593  0.0000
  O1     O1        0.345153072418188    0.567750114132220    0.311517035061224  0.0000
  O1     O1        0.848775428884009    0.569397662731264    0.624319182073801  0.0000
  O1     O1        0.659689021809904    0.492549563031018    0.615498931878656  0.0000
  O1     O1        0.272309884962329    0.253032496322598    0.256091681115437  0.0000
  O1     O1        0.230583638042417    0.801360201872475    0.263731006681632  0.0000
  O1     O1        0.769563156856409    0.260574328209271    0.686427691385151  0.0000
  O1     O1        0.737780016687782    0.804892962162103    0.675109127249578  0.0000
  O3     O3        0.144623961297663    0.274085243047084    0.090139996480600  0.0000
  O1     O1        0.362150490510891    0.796962991401533    0.101102333235794  0.0000
  O1     O1        0.887352696481902    0.397198150018211    0.845369340892354  0.0000
  O1     O1        0.621212488064801    0.657996609031788    0.833018870712730  0.0000
  O1     O1        0.859804340203694    0.786127051746544    0.848051094475524  0.0000
  O1     O1        0.641087416421975    0.276935260040337    0.844322253070779  0.0000
  O3     O3        0.114036214057527    0.684327974061276    0.093841789994202  0.0000
  O1     O1        0.381370563344577    0.395594817190613    0.085310735036950  0.0000
  O1     O1        0.656437408883053    0.488497477935181    0.061683273631265  0.0000
  O1     O1        0.841234164627668    0.578039710553779    0.066131890908332  0.0000
  O1     O1        0.345523551559871    0.586117087551545    0.871058658032815  0.0000
  O2     O2        0.160104008438823    0.502867580720841    0.897636609366390  0.0000
  O1     O1        0.771689799913081    0.261031062895733    0.001132292777370  0.0000
  O1     O1        0.727678002843276    0.808272524602589    0.001284157169009  0.0000
  O3     O3        0.261942741021960    0.272248030200710    0.929525744124428  0.0000
  O3     O3        0.230732787634648    0.796346211297659    0.958533855149355  0.0000
