data_c01201.vasp
_audit_creation_method             Generated by GULP
_audit_author_name                 Salvador R. G. Balestra
_symmetry_space_group_name_H-M     'P 1             '
_symmetry_Int_Tables_number        1

loop_
_symmetry_equiv_pos_site_id
_symmetry_equiv_pos_as_xyz
_cell_length_a                       17.5904
_cell_length_b                        7.8543
_cell_length_c                       10.1404
_cell_angle_alpha                   89.1823
_cell_angle_beta                    91.0625
_cell_angle_gamma                   88.0190

loop_
_atom_site_label
_atom_site_type_symbol
_atom_site_fract_x
_atom_site_fract_y
_atom_site_fract_z
_atom_site_charge
  Ge     Ge        0.052090000000021    0.000000000000000    0.372269999999958  0.0000
  Ge     Ge        0.448650684962517    0.945352878318594    0.405793808119910  0.0000
  Ge     Ge        0.938866520221164    0.958034147702961    0.613049164685359  0.0000
  Ge     Ge        0.947957200613211    0.941589595493289    0.116093330919384  0.0000
  Ge     Ge        0.447410184881441    0.949810718401208    0.908526628779804  0.0000
  Ge     Ge        0.049563817862576    0.009425733486186    0.863181520420271  0.0000
  Ge     Ge        0.151391431900961    0.312478803205792    0.306233272413599  0.0000
  Ge     Ge        0.356409447463204    0.629782150506261    0.297175681454887  0.0000
  Ge     Ge        0.821474918356096    0.247276151601090    0.730380742892730  0.0000
  Ge     Ge        0.842710552466146    0.645936404007037    0.730090654275513  0.0000
  Ge     Ge        0.637593269663347    0.319988491318211    0.733128574661949  0.0000
  Ge     Ge        0.173965931968122    0.711088694390792    0.303080249265987  0.0000
  Ge     Ge        0.639712736243339    0.310821766536683    0.047868656668308  0.0000
  Ge     Ge        0.846908417850928    0.633889125509528    0.055307107861215  0.0000
  Ge     Ge        0.322719150116683    0.235986118454645    0.980215328982298  0.0000
  Ge     Ge        0.171365915948724    0.719894870636713    0.983370141195475  0.0000
  Ge     Ge        0.353054336206883    0.634858157003996    0.979777567361579  0.0000
  Ge     Ge        0.142349700052174    0.318228045090880    0.984087973588275  0.0000
  Ge     Ge        0.666540523244835    0.711955305248458    0.047884570282776  0.0000
  Ge     Ge        0.823153649743423    0.233476251909096    0.047495606188306  0.0000
  Si     Si        0.549401240417074    0.004844752368597    0.660930415546621  0.0000
  Si     Si        0.550509352670092    0.003125864019467    0.160859958574552  0.0000
  Si     Si        0.663555040992655    0.710388115797755    0.730961454112313  0.0000
  Si     Si        0.329059347066391    0.236221984391577    0.294630226330843  0.0000
  O1     O1        0.090149938735502    0.195526658533761    0.396862418193323  0.0000
  O1     O1        0.419109880030269    0.741456754120744    0.391198215527427  0.0000
  O1     O1        0.863766525550946    0.098437678581111    0.632102122605991  0.0000
  O2     O2        0.615854243170331    0.856921945675877    0.647962502920530  0.0000
  O1     O1        0.907942476067224    0.757413470286871    0.645734813154274  0.0000
  O3     O3        0.581659940927450    0.191017002794467    0.635559537518509  0.0000
  O1     O1        0.124481040355898    0.850373183499801    0.400155882606756  0.0000
  O3     O3        0.374066632249968    0.090123282329159    0.378222612194548  0.0000
  O1     O1        0.969950072299720    0.965115465840810    0.452780694275648  0.0000
  O3     O3        0.478094010748316    0.969144136331703    0.568474580734999  0.0000
  O1     O1        0.026263379712339    0.986466483421847    0.206721842552256  0.0000
  O3     O3        0.527058804477088    0.983712285157517    0.312039364807118  0.0000
  O1     O1        0.019103413121672    0.007901476143034    0.701175081854830  0.0000
  O3     O3        0.522305084378558    0.998210681070302    0.812262589700342  0.0000
  O3     O3        0.576916240246119    0.194996857093737    0.138406934643070  0.0000
  O1     O1        0.913683542494570    0.740923424313224    0.142400647774455  0.0000
  O1     O1        0.371561482060237    0.091925264463850    0.888161643482892  0.0000
  O1     O1        0.127320560707754    0.873510319763469    0.885864737834480  0.0000
  O1     O1        0.415087445740892    0.748572392543957    0.887178229186204  0.0000
  O1     O1        0.073224791763212    0.214395216702995    0.900408421890730  0.0000
  O3     O3        0.619519823490660    0.871399401533469    0.129277033062719  0.0000
  O1     O1        0.873412292069404    0.085407383959994    0.140482811337991  0.0000
  O3     O3        0.477129652525152    0.962947928868197    0.072324720558369  0.0000
  O1     O1        0.973979091779392    0.945736189699594    0.952690960653201  0.0000
  O1     O1        0.159642346558719    0.510420028314672    0.368245366819524  0.0000
  O3     O3        0.345049393574568    0.422395076968949    0.353226348601117  0.0000
  O1     O1        0.837484869818544    0.446210782574994    0.666183550107696  0.0000
  O3     O3        0.645896182227983    0.525601688143455    0.671063524242003  0.0000
  O3     O3        0.239361918995923    0.204629209889671    0.300311625590433  0.0000
  O1     O1        0.269905256829632    0.738837675300830    0.301831066172580  0.0000
  O1     O1        0.725750029841477    0.221121906173246    0.740136221260074  0.0000
  O3     O3        0.752521494580232    0.745733731432857    0.722451100765614  0.0000
  O1     O1        0.117759924081925    0.332835779565561    0.146459761728358  0.0000
  O1     O1        0.388355572858774    0.622316914559468    0.139376039700359  0.0000
  O1     O1        0.857315593285566    0.225242620169180    0.888972229079051  0.0000
  O3     O3        0.638835989433978    0.707985970991423    0.882968445971434  0.0000
  O1     O1        0.870877384179266    0.623121396833259    0.891545858132005  0.0000
  O1     O1        0.603324316849158    0.329498007755177    0.889576532110377  0.0000
  O1     O1        0.139602158585147    0.728986497040708    0.142777210819497  0.0000
  O3     O3        0.354647949818440    0.232093960194409    0.143403707157394  0.0000
  O1     O1        0.648622479041614    0.511833138342398    0.109871947834889  0.0000
  O1     O1        0.837707732424120    0.431732550816512    0.113577803867019  0.0000
  O1     O1        0.339370506537312    0.437552380467846    0.918734119219127  0.0000
  O1     O1        0.153238503700663    0.520294842364779    0.923084112287941  0.0000
  O1     O1        0.727008987008368    0.205639316432579    0.045482821516768  0.0000
  O1     O1        0.761256094482425    0.747466393629932    0.061370395333290  0.0000
  O1     O1        0.227433822228475    0.203020747594991    0.973090751568467  0.0000
  O1     O1        0.267443662264867    0.747696750325732    0.985637052422996  0.0000
