data_c01204.vasp
_audit_creation_method             Generated by GULP
_audit_author_name                 Salvador R. G. Balestra
_symmetry_space_group_name_H-M     'P 1             '
_symmetry_Int_Tables_number        1

loop_
_symmetry_equiv_pos_site_id
_symmetry_equiv_pos_as_xyz
_cell_length_a                       17.5775
_cell_length_b                        7.8509
_cell_length_c                       10.1452
_cell_angle_alpha                   88.7402
_cell_angle_beta                    90.4669
_cell_angle_gamma                   88.4752

loop_
_atom_site_label
_atom_site_type_symbol
_atom_site_fract_x
_atom_site_fract_y
_atom_site_fract_z
_atom_site_charge
  Ge     Ge        0.052090000000021    0.000000000000000    0.372269999999958  0.0000
  Ge     Ge        0.453929148868971    0.945777136254969    0.379233056019729  0.0000
  Ge     Ge        0.939246765634382    0.976259201430368    0.614848141086501  0.0000
  Ge     Ge        0.951165740030824    0.946812190592467    0.112328150757377  0.0000
  Ge     Ge        0.448627225589695    0.955122504264294    0.864592317956209  0.0000
  Ge     Ge        0.054740402297207    0.013097874529623    0.858161781044410  0.0000
  Ge     Ge        0.149750735192034    0.315048763678482    0.302428754830578  0.0000
  Ge     Ge        0.356705057116532    0.635271559241809    0.300541667231681  0.0000
  Ge     Ge        0.827526641411612    0.275386894536618    0.723388103353491  0.0000
  Ge     Ge        0.641809139866801    0.329965399873881    0.729439863435258  0.0000
  Ge     Ge        0.175729461381973    0.717702687620092    0.297970105647625  0.0000
  Ge     Ge        0.330375910788682    0.232443636813457    0.300795462082810  0.0000
  Ge     Ge        0.644943782650548    0.307191423579967    0.045470124380328  0.0000
  Ge     Ge        0.845324253100753    0.644368027155140    0.055297757823745  0.0000
  Ge     Ge        0.327785003877316    0.236963181043653    0.980412469605979  0.0000
  Ge     Ge        0.175916343416480    0.724782441119855    0.978045219387918  0.0000
  Ge     Ge        0.357410920966677    0.639185999085817    0.980797781792041  0.0000
  Ge     Ge        0.146440150511234    0.322458143224260    0.981636788448119  0.0000
  Ge     Ge        0.665413267852766    0.709677902491720    0.054306363926305  0.0000
  Ge     Ge        0.827820512526712    0.239910948183267    0.039296745811489  0.0000
  Si     Si        0.556441709305601    0.013689893477776    0.622349807187217  0.0000
  Si     Si        0.548835211279993    0.002277800781523    0.120705886502407  0.0000
  Si     Si        0.664494850597482    0.720050656167222    0.739854739361338  0.0000
  Si     Si        0.841936804413730    0.666979774540958    0.739083373256129  0.0000
  O1     O1        0.086112630677431    0.200537744946357    0.393855083012157  0.0000
  O1     O1        0.420185176856822    0.744537284406217    0.394875160237609  0.0000
  O1     O1        0.874832084572055    0.142448949352412    0.619230863580900  0.0000
  O2     O2        0.625185787545555    0.883024690327579    0.665979341999354  0.0000
  O3     O3        0.897428231760824    0.788401439802719    0.660852662858371  0.0000
  O3     O3        0.582168032147416    0.206691177227273    0.636275787271297  0.0000
  O1     O1        0.125579773457421    0.853151196808078    0.396668347772866  0.0000
  O1     O1        0.380984130023768    0.091483185537513    0.400841437889430  0.0000
  O1     O1        0.970712923878152    0.957938475710330    0.455056504706251  0.0000
  O3     O3        0.534045007981357    0.981561932442748    0.471672938617508  0.0000
  O1     O1        0.028064184522417    0.985569569198727    0.206344198840046  0.0000
  O3     O3        0.478375575048313    0.973591108760836    0.213761281046047  0.0000
  O1     O1        0.022667453378494    0.011299974567287    0.697596470792806  0.0000
  O3     O3        0.480628852234097    0.976470323155254    0.704471668175535  0.0000
  O3     O3        0.587544900864176    0.182876628206098    0.143745436073863  0.0000
  O1     O1        0.913351086065434    0.748237534944687    0.139533917725450  0.0000
  O1     O1        0.371360958316775    0.089444887191966    0.883343211308656  0.0000
  O1     O1        0.132087032018081    0.876872076645653    0.879033835147992  0.0000
  O1     O1        0.422600838063925    0.748390439840596    0.889948999093246  0.0000
  O1     O1        0.079449678525319    0.217614622734142    0.894233034318733  0.0000
  O3     O3        0.611327928805754    0.849619953842407    0.143501917719637  0.0000
  O1     O1        0.878058077883566    0.094675576781277    0.133497417763650  0.0000
  O3     O3        0.522222055973119    0.006208372803212    0.968209853785289  0.0000
  O1     O1        0.979000549807052    0.950739687420501    0.950134204763619  0.0000
  O1     O1        0.163154046411715    0.513601509065302    0.360832030056082  0.0000
  O1     O1        0.343393426199111    0.434362799265471    0.360672078331309  0.0000
  O3     O3        0.842262452360653    0.484229629166835    0.672112334064246  0.0000
  O3     O3        0.643691166500639    0.542575977227832    0.673888971873395  0.0000
  O1     O1        0.234489516473732    0.197938725406042    0.302154664559904  0.0000
  O1     O1        0.271709827523897    0.751726212102598    0.297794277804411  0.0000
  O1     O1        0.731707351994782    0.243457615804532    0.721010613512874  0.0000
  O2     O2        0.755475682566755    0.746334217221361    0.738220092489244  0.0000
  O1     O1        0.117644155718934    0.338487446061909    0.142281733840329  0.0000
  O1     O1        0.388780660344864    0.620523192422173    0.141518809363711  0.0000
  O1     O1        0.861974531476337    0.234844691539486    0.880037712786108  0.0000
  O3     O3        0.637054785523762    0.714224478538430    0.889861285695097  0.0000
  O3     O3        0.868724559648568    0.640258497303955    0.889034379831719  0.0000
  O1     O1        0.609176615302196    0.329196537746938    0.887278246587576  0.0000
  O1     O1        0.143117879825810    0.735718244563520    0.137218443536563  0.0000
  O1     O1        0.360742074063316    0.221306996790533    0.140238248637999  0.0000
  O1     O1        0.652713662347382    0.504035875999917    0.111824143635115  0.0000
  O1     O1        0.838454972597051    0.438167365992546    0.106895702660963  0.0000
  O1     O1        0.344894994477607    0.440084954370541    0.920576730340276  0.0000
  O1     O1        0.158475296004702    0.524600118017818    0.919395645582816  0.0000
  O1     O1        0.732199749189826    0.204509692251104    0.033035458482737  0.0000
  O1     O1        0.759499357839661    0.753529657240281    0.069590023506383  0.0000
  O1     O1        0.231460754328850    0.208270561002330    0.979168472041680  0.0000
  O1     O1        0.272244691182634    0.752794791454468    0.979502771268815  0.0000
