data_c01242.vasp
_audit_creation_method             Generated by GULP
_audit_author_name                 Salvador R. G. Balestra
_symmetry_space_group_name_H-M     'P 1             '
_symmetry_Int_Tables_number        1

loop_
_symmetry_equiv_pos_site_id
_symmetry_equiv_pos_as_xyz
_cell_length_a                       17.5229
_cell_length_b                        7.8124
_cell_length_c                       10.2395
_cell_angle_alpha                   89.5352
_cell_angle_beta                    90.0618
_cell_angle_gamma                   91.2086

loop_
_atom_site_label
_atom_site_type_symbol
_atom_site_fract_x
_atom_site_fract_y
_atom_site_fract_z
_atom_site_charge
  Ge     Ge        0.052090000000021    0.000000000000000    0.372269999999958  0.0000
  Ge     Ge        0.451095497205132    0.048570839775273    0.376045624335482  0.0000
  Ge     Ge        0.557546520515529    0.983110454041945    0.125935704604026  0.0000
  Ge     Ge        0.945092989602521    0.043354866198553    0.123621268067635  0.0000
  Ge     Ge        0.454026934406283    0.057543011077639    0.870321097224420  0.0000
  Ge     Ge        0.055384680151975    0.989620235330491    0.876258426194595  0.0000
  Ge     Ge        0.175699442599818    0.282415346723037    0.261734181955728  0.0000
  Ge     Ge        0.327260057818800    0.768330262942802    0.262902363853111  0.0000
  Ge     Ge        0.854959292557532    0.350681778888020    0.689336853210183  0.0000
  Ge     Ge        0.651021506156759    0.681428754232311    0.691445274679656  0.0000
  Ge     Ge        0.834500766946721    0.755090770393803    0.696228748177799  0.0000
  Ge     Ge        0.672994643487556    0.277873657269478    0.690721664134222  0.0000
  Ge     Ge        0.146307207014728    0.686729463670248    0.254557368163432  0.0000
  Ge     Ge        0.357799112672001    0.364269946848566    0.258221672372330  0.0000
  Ge     Ge        0.677737508234548    0.267641928398221    0.008744512707017  0.0000
  Ge     Ge        0.829423158514998    0.747435678551251    0.011549913471717  0.0000
  Ge     Ge        0.355724852055818    0.368993770320237    0.939470467834428  0.0000
  Ge     Ge        0.330296071668293    0.770320172491027    0.946720516542578  0.0000
  Ge     Ge        0.174862734203508    0.286230726671676    0.946469948944944  0.0000
  Ge     Ge        0.647523304402166    0.667740144404814    0.008911503948552  0.0000
  Si     Si        0.952791021021827    0.039572446863593    0.625377102467307  0.0000
  Si     Si        0.554604603539977    0.993097663219470    0.622444224196592  0.0000
  Si     Si        0.153699643039375    0.682812177424760    0.944419761984709  0.0000
  Si     Si        0.854528490869717    0.351869398185007    0.000169099461356  0.0000
  O1     O1        0.130122066457308    0.133489462918826    0.358545944246058  0.0000
  O1     O1        0.372921244505925    0.916668946806914    0.358156045272489  0.0000
  O3     O3        0.921598524878276    0.231080913157802    0.608225421266005  0.0000
  O3     O3        0.588042018378599    0.805371777919848    0.602261949474132  0.0000
  O3     O3        0.884034054238080    0.903344143511084    0.600911609134115  0.0000
  O3     O3        0.621220120704635    0.134434862228106    0.596424565327295  0.0000
  O1     O1        0.075927037063098    0.794590225462312    0.331910399165181  0.0000
  O1     O1        0.425647716107297    0.255305989477812    0.344415629790827  0.0000
  O3     O3        0.024506888616425    0.005290688060622    0.535259894267598  0.0000
  O3     O3        0.480473041784903    0.029949791803311    0.537953067093453  0.0000
  O1     O1        0.975170090765084    0.062638797688445    0.282264602115859  0.0000
  O1     O1        0.527818740828835    0.989560776657258    0.284925991613358  0.0000
  O3     O3        0.978310990702528    0.015230221235585    0.776023331782559  0.0000
  O3     O3        0.530316472426422    0.007654036463060    0.774883804827924  0.0000
  O1     O1        0.638197971299447    0.109653888615926    0.103016022087782  0.0000
  O1     O1        0.874415496809255    0.888811387454011    0.113628987553288  0.0000
  O1     O1        0.419847229537171    0.259752411613861    0.847222612458765  0.0000
  O3     O3        0.096141119871064    0.790146069969533    0.856266017796599  0.0000
  O1     O1        0.378068346757854    0.916157808850371    0.851975288085810  0.0000
  O1     O1        0.122420144916227    0.150315170038397    0.850564333027679  0.0000
  O1     O1        0.579197757360117    0.774637378421865    0.091902512700201  0.0000
  O3     O3        0.917424933076406    0.246227458740905    0.076357554763211  0.0000
  O1     O1        0.484321699885027    0.052955813683724    0.030514136001396  0.0000
  O1     O1        0.023286391557063    0.989290704331319    0.034379911367879  0.0000
  O1     O1        0.157942994394781    0.485306520032805    0.317730913092173  0.0000
  O1     O1        0.344211660564855    0.564513292067678    0.320145304599706  0.0000
  O1     O1        0.848992293724787    0.555030648052532    0.630537948218890  0.0000
  O1     O1        0.659397517400371    0.480999650098628    0.628134066043983  0.0000
  O1     O1        0.272245345111515    0.251242917119448    0.262598260335594  0.0000
  O1     O1        0.230861250070115    0.801614546188173    0.266214956251592  0.0000
  O1     O1        0.769033080337237    0.241637048325052    0.681208425246836  0.0000
  O1     O1        0.738006162195687    0.788008695571187    0.693680046702205  0.0000
  O1     O1        0.142803774532025    0.260379374655287    0.103958095108680  0.0000
  O1     O1        0.361718023268904    0.787476813654563    0.105684658878862  0.0000
  O3     O3        0.880421421264443    0.380854799022352    0.851111119894357  0.0000
  O1     O1        0.619732394734351    0.651248171280050    0.848401680153756  0.0000
  O1     O1        0.864077849288336    0.772880344693802    0.855949674601529  0.0000
  O1     O1        0.644112765393191    0.260565419077666    0.850780071114644  0.0000
  O3     O3        0.122951585871811    0.657668896602736    0.091700935835223  0.0000
  O1     O1        0.386171818248462    0.387040192762860    0.098935761877128  0.0000
  O1     O1        0.657162398126176    0.465097569338898    0.071331155570211  0.0000
  O3     O3        0.842497064201539    0.536524518073671    0.063490749292786  0.0000
  O1     O1        0.346571292760340    0.571944576792391    0.881286311834713  0.0000
  O3     O3        0.166590438917207    0.495847293557961    0.887677018685217  0.0000
  O3     O3        0.775514187871892    0.242032382772109    0.002200761594444  0.0000
  O1     O1        0.733157280884379    0.779733084993340    0.013749025174677  0.0000
  O1     O1        0.270969766444825    0.251567241121007    0.941681095959595  0.0000
  O3     O3        0.232474460378586    0.794602868831244    0.951822521698698  0.0000
