data_c01299.vasp
_audit_creation_method             Generated by GULP
_audit_author_name                 Salvador R. G. Balestra
_symmetry_space_group_name_H-M     'P 1             '
_symmetry_Int_Tables_number        1

loop_
_symmetry_equiv_pos_site_id
_symmetry_equiv_pos_as_xyz
_cell_length_a                       17.7022
_cell_length_b                        7.8520
_cell_length_c                       10.4072
_cell_angle_alpha                   89.9533
_cell_angle_beta                    91.0270
_cell_angle_gamma                   89.5445

loop_
_atom_site_label
_atom_site_type_symbol
_atom_site_fract_x
_atom_site_fract_y
_atom_site_fract_z
_atom_site_charge
  Ge     Ge        0.052090000000021    0.000000000000000    0.372269999999958  0.0000
  Ge     Ge        0.945009579164666    0.001243889144062    0.621534348621399  0.0000
  Ge     Ge        0.550108953634932    0.982423399560914    0.118358597248650  0.0000
  Ge     Ge        0.946211243920103    0.002411119391697    0.116135957446762  0.0000
  Ge     Ge        0.440668266512670    0.978834150573691    0.862530206131280  0.0000
  Ge     Ge        0.053443739696650    0.000248463592471    0.870831354528847  0.0000
  Ge     Ge        0.152810380164536    0.310439575187532    0.294798172108172  0.0000
  Ge     Ge        0.353903204505013    0.664274687849508    0.289394012549874  0.0000
  Ge     Ge        0.843813446406522    0.313132097280268    0.732256968912920  0.0000
  Ge     Ge        0.642896365354099    0.668582378707515    0.731423903315156  0.0000
  Ge     Ge        0.823334354083612    0.720020817117180    0.730146118671611  0.0000
  Ge     Ge        0.662369720947169    0.258870284655292    0.731779043577035  0.0000
  Ge     Ge        0.173281480119432    0.717133886609168    0.295310275133883  0.0000
  Ge     Ge        0.334997717862287    0.254971877037385    0.288130973956067  0.0000
  Ge     Ge        0.665639270278761    0.268915611005651    0.043277638766237  0.0000
  Ge     Ge        0.823722765762567    0.724391712765044    0.042777899709473  0.0000
  Ge     Ge        0.326009892959237    0.259654414622045    0.978207093118983  0.0000
  Ge     Ge        0.348157438118820    0.663190593064341    0.977156147180677  0.0000
  Ge     Ge        0.143418634590733    0.322109901436679    0.986197117305239  0.0000
  Ge     Ge        0.846521414035814    0.321559678899108    0.046767339197385  0.0000
  Si     Si        0.449620854709485    0.971257981989701    0.372034148406489  0.0000
  Si     Si        0.546287368768965    0.978684079951872    0.622492552701502  0.0000
  Si     Si        0.169002357541915    0.718603244257787    0.989744883722710  0.0000
  Si     Si        0.646727001370373    0.669151276427078    0.036917336933379  0.0000
  O1     O1        0.093683426646223    0.195281908907875    0.389769878426746  0.0000
  O3     O3        0.415395564894509    0.783853381702145    0.383451428129815  0.0000
  O1     O1        0.909605931936404    0.201851257374579    0.647570892616444  0.0000
  O3     O3        0.575589209781169    0.787886342799198    0.650278218247209  0.0000
  O1     O1        0.873979741341609    0.857327596904994    0.639370817731611  0.0000
  O3     O3        0.613292809594460    0.112518199962782    0.640175724350418  0.0000
  O1     O1        0.121882600600001    0.847556641235062    0.391610690667771  0.0000
  O3     O3        0.384639295116474    0.113881851759875    0.386118433456188  0.0000
  O1     O1        0.975066277630365    0.981927124752558    0.465829755714635  0.0000
  O2     O2        0.517681948532040    0.993675591200606    0.474533536977772  0.0000
  O1     O1        0.021044183171073    0.968050992798450    0.215741278859522  0.0000
  O3     O3        0.480939867073798    0.997515230719878    0.229370868559556  0.0000
  O1     O1        0.024713040860557    0.966627194026093    0.714873216005896  0.0000
  O3     O3        0.475461750436325    0.017003935696740    0.711476533854127  0.0000
  O1     O1        0.617422968122507    0.136896384042452    0.141965605724432  0.0000
  O1     O1        0.871012678404554    0.866179165732400    0.136346314706404  0.0000
  O1     O1        0.364400423805004    0.112008341431020    0.879419298314610  0.0000
  O3     O3        0.127186161885237    0.861616488050581    0.905546502579341  0.0000
  O1     O1        0.407514355088875    0.775782855301674    0.882522062050340  0.0000
  O1     O1        0.082949933534275    0.207555637547848    0.891210425735156  0.0000
  O3     O3        0.590249071101261    0.779991008602481    0.121758927538234  0.0000
  O1     O1        0.910968126262937    0.205544125742040    0.134738727679440  0.0000
  O1     O1        0.511191231099239    0.025529002394393    0.970145768781773  0.0000
  O1     O1        0.975490694728708    0.966793677856879    0.961354023037831  0.0000
  O1     O1        0.163177402317018    0.512328498723911    0.351366101878001  0.0000
  O1     O1        0.348463982340640    0.459890597654841    0.344013623961294  0.0000
  O1     O1        0.834046249446761    0.515654624855610    0.673170299762478  0.0000
  O1     O1        0.647811435584749    0.464001481521968    0.675631352870951  0.0000
  O1     O1        0.240175402313720    0.211877684814285    0.290749691646065  0.0000
  O1     O1        0.267222922287710    0.764353173302844    0.297833375791407  0.0000
  O1     O1        0.757231428710051    0.213838927754345    0.725539647713542  0.0000
  O1     O1        0.728368014103280    0.767234618923340    0.721197622567186  0.0000
  O1     O1        0.113274401886291    0.313967264829799    0.141942264375811  0.0000
  O1     O1        0.383054065382682    0.664411224900400    0.132661238660345  0.0000
  O1     O1        0.874596813912017    0.324339005431695    0.889186874547379  0.0000
  O3     O3        0.615501803191239    0.660207270683610    0.890673212169279  0.0000
  O1     O1        0.854325019546247    0.730725831158867    0.886853058457655  0.0000
  O1     O1        0.633349298530519    0.247477387849862    0.887398771975195  0.0000
  O3     O3        0.141460240451752    0.724081277470669    0.136168558339408  0.0000
  O1     O1        0.363899784296610    0.245564764732388    0.131555067158955  0.0000
  O3     O3        0.655843187060781    0.480083356512132    0.092625136925089  0.0000
  O1     O1        0.840200141220600    0.523848148192880    0.104670188789993  0.0000
  O1     O1        0.342880072721987    0.460751866993154    0.919658538779065  0.0000
  O3     O3        0.150071082623102    0.531163215671421    0.934061610045683  0.0000
  O1     O1        0.760090785818584    0.222356879649032    0.048407704289274  0.0000
  O3     O3        0.727399137684670    0.763440821654390    0.036040406676874  0.0000
  O1     O1        0.230957824465950    0.228399622085568    0.985788320186425  0.0000
  O3     O3        0.258197837879803    0.751632277349728    0.985490945478118  0.0000
