data_c01209.vasp
_audit_creation_method             Generated by GULP
_audit_author_name                 Salvador R. G. Balestra
_symmetry_space_group_name_H-M     'P 1             '
_symmetry_Int_Tables_number        1

loop_
_symmetry_equiv_pos_site_id
_symmetry_equiv_pos_as_xyz
_cell_length_a                       17.7462
_cell_length_b                        7.9143
_cell_length_c                       10.2029
_cell_angle_alpha                   91.2772
_cell_angle_beta                    90.1739
_cell_angle_gamma                   90.1330

loop_
_atom_site_label
_atom_site_type_symbol
_atom_site_fract_x
_atom_site_fract_y
_atom_site_fract_z
_atom_site_charge
  Ge     Ge        0.052090000000021    0.000000000000000    0.372269999999958  0.0000
  Ge     Ge        0.440975804074537    0.016901668705684    0.410919840141841  0.0000
  Ge     Ge        0.940294106754099    0.969380676695453    0.619066203308961  0.0000
  Ge     Ge        0.942322385284244    0.991652155031948    0.122056075210751  0.0000
  Ge     Ge        0.447296057615310    0.000967113260002    0.912780369729826  0.0000
  Ge     Ge        0.048558118349267    0.981279965157571    0.871155946216143  0.0000
  Ge     Ge        0.163122368742944    0.299187612065130    0.314292640350915  0.0000
  Ge     Ge        0.822499568205406    0.260675040560025    0.739093458482315  0.0000
  Ge     Ge        0.656519573486360    0.706123254933076    0.732324602155355  0.0000
  Ge     Ge        0.838450308564995    0.664602577305454    0.732026333209495  0.0000
  Ge     Ge        0.640827067758207    0.302645664799829    0.736063374905629  0.0000
  Ge     Ge        0.347814903472046    0.335978344612445    0.312423008037830  0.0000
  Ge     Ge        0.640647525969102    0.315325504639337    0.054080887528956  0.0000
  Ge     Ge        0.840558807789723    0.675579009575856    0.051026919660003  0.0000
  Ge     Ge        0.346627289288833    0.314825982113286    0.994066975724975  0.0000
  Ge     Ge        0.147727633754533    0.676990514989009    0.990508945246424  0.0000
  Ge     Ge        0.327166519795890    0.719181858154549    0.984536448816475  0.0000
  Ge     Ge        0.165785647422314    0.269195301974277    0.996190682099797  0.0000
  Ge     Ge        0.658772948844683    0.719390665038389    0.050595095573029  0.0000
  Ge     Ge        0.822649641130253    0.274029615165327    0.057202842413587  0.0000
  Si     Si        0.546027589443528    0.990738975893507    0.656537707872118  0.0000
  Si     Si        0.548872842720480    0.007091439095928    0.166339174926846  0.0000
  Si     Si        0.331179763237653    0.726306792476753    0.294171214330248  0.0000
  Si     Si        0.152998145752701    0.689799782162956    0.300531503797843  0.0000
  O1     O1        0.109151928565957    0.170378353272278    0.408922969813219  0.0000
  O3     O3        0.367211720841581    0.879766980852801    0.376237478982812  0.0000
  O1     O1        0.872255882614626    0.119000952798906    0.646036381159417  0.0000
  O3     O3        0.606244611456945    0.841703268805019    0.633908815100848  0.0000
  O1     O1        0.901240939029976    0.773626136724300    0.639331222261259  0.0000
  O3     O3        0.583989786213537    0.173299601936478    0.638035139200706  0.0000
  O3     O3        0.107835684936035    0.821436508555673    0.390028730082138  0.0000
  O1     O1        0.406039691618354    0.217636088994203    0.408193020626065  0.0000
  O1     O1        0.971076684034307    0.988090003256734    0.459917487205972  0.0000
  O3     O3        0.472460335803629    0.972032612481239    0.567101853640605  0.0000
  O1     O1        0.022282733296779    0.015799221580361    0.212107910766655  0.0000
  O3     O3        0.519229570964937    0.991117075443493    0.313576320465257  0.0000
  O1     O1        0.020899691533278    0.995334063417655    0.710515547950255  0.0000
  O3     O3        0.521681497961973    0.976805186889654    0.808565863032224  0.0000
  O3     O3        0.578701672932414    0.196597469275384    0.143724970157345  0.0000
  O1     O1        0.901684506602382    0.796704490831761    0.142320777680859  0.0000
  O1     O1        0.407595724112802    0.196880557315596    0.900292087712502  0.0000
  O1     O1        0.081490896600369    0.781548688504479    0.903330127613410  0.0000
  O1     O1        0.378602786082333    0.849668047814558    0.889276052682516  0.0000
  O1     O1        0.118305995118959    0.127857796553212    0.898510385744084  0.0000
  O3     O3        0.615430388179634    0.872936481730949    0.144848891421595  0.0000
  O1     O1        0.874095783861653    0.142403331818236    0.152201884823296  0.0000
  O3     O3        0.479326975049816    0.966948355388961    0.070279233665714  0.0000
  O1     O1        0.968880684556369    0.017176294273152    0.961110066199498  0.0000
  O3     O3        0.147932011124132    0.507365823810511    0.363884632282039  0.0000
  O3     O3        0.351004445006678    0.548408280030825    0.359189319119334  0.0000
  O1     O1        0.831319033047343    0.459818317548254    0.675870864810926  0.0000
  O1     O1        0.645050379754259    0.501307009772773    0.673847759981260  0.0000
  O1     O1        0.257507616327104    0.259883065426742    0.326698012481648  0.0000
  O2     O2        0.240490057137825    0.745146956532329    0.286222130166063  0.0000
  O1     O1        0.728375449800451    0.211001560507787    0.740575092749001  0.0000
  O1     O1        0.750460402547921    0.756619491396740    0.728168401085414  0.0000
  O1     O1        0.134246220208900    0.266252708524747    0.154858604830581  0.0000
  O3     O3        0.359766826212859    0.727047042401474    0.145569265358000  0.0000
  O1     O1        0.854394420190685    0.264408769770992    0.897811593449040  0.0000
  O1     O1        0.626042796765119    0.714329448233610    0.892128305145764  0.0000
  O1     O1        0.871062369690310    0.667002272202164    0.890914113347524  0.0000
  O1     O1        0.608509929799994    0.316141747001045    0.894875760341372  0.0000
  O3     O3        0.119484335687795    0.683094310283013    0.153846260337597  0.0000
  O1     O1        0.378327475016072    0.316146526191287    0.153879987290261  0.0000
  O1     O1        0.645228887712589    0.520340758169981    0.112535011233180  0.0000
  O1     O1        0.833743936896227    0.478807424752706    0.114744658253618  0.0000
  O1     O1        0.338548229892367    0.512455558404483    0.932406068696302  0.0000
  O1     O1        0.154171301254772    0.470753553088549    0.938553345070410  0.0000
  O1     O1        0.728479811921102    0.225471824185385    0.058501924096065  0.0000
  O1     O1        0.752719832333938    0.767207026693529    0.048632780841067  0.0000
  O1     O1        0.259609001310204    0.219317280797015    0.996000441992621  0.0000
  O1     O1        0.234075397743361    0.772864135691216    0.974463428278584  0.0000
