data_c01252.vasp
_audit_creation_method             Generated by GULP
_audit_author_name                 Salvador R. G. Balestra
_symmetry_space_group_name_H-M     'P 1             '
_symmetry_Int_Tables_number        1

loop_
_symmetry_equiv_pos_site_id
_symmetry_equiv_pos_as_xyz
_cell_length_a                       17.5453
_cell_length_b                        7.8091
_cell_length_c                       10.1806
_cell_angle_alpha                   89.0536
_cell_angle_beta                    90.1999
_cell_angle_gamma                   91.2058

loop_
_atom_site_label
_atom_site_type_symbol
_atom_site_fract_x
_atom_site_fract_y
_atom_site_fract_z
_atom_site_charge
  Ge     Ge        0.052090000000021    0.000000000000000    0.372269999999958  0.0000
  Ge     Ge        0.444251092494806    0.052818150297911    0.366295003551291  0.0000
  Ge     Ge        0.552992262286603    0.001323656036107    0.118197812796512  0.0000
  Ge     Ge        0.944954260938030    0.060782665767426    0.121474401135819  0.0000
  Ge     Ge        0.449430012455153    0.071393964850276    0.861243440011897  0.0000
  Ge     Ge        0.051140788640350    0.001856404080967    0.869669814334270  0.0000
  Ge     Ge        0.173277854898972    0.284408570969828    0.254641915459666  0.0000
  Ge     Ge        0.326473565338475    0.761373206950422    0.258490636680836  0.0000
  Ge     Ge        0.852621117102133    0.368402660886007    0.680772699622362  0.0000
  Ge     Ge        0.646625537889514    0.700802077643753    0.677752871724010  0.0000
  Ge     Ge        0.829663766250442    0.771002704700928    0.682973625829539  0.0000
  Ge     Ge        0.669401424093752    0.297426933928071    0.683154473141074  0.0000
  Ge     Ge        0.144657216982617    0.687490807741545    0.254985433890855  0.0000
  Ge     Ge        0.674268578138844    0.287166116952764    0.002122061188112  0.0000
  Ge     Ge        0.823742113148588    0.777982992152940    0.002661443823832  0.0000
  Ge     Ge        0.349934929546384    0.379307851023633    0.930518357555937  0.0000
  Ge     Ge        0.327179690830714    0.782472964582519    0.942443471742505  0.0000
  Ge     Ge        0.170497155913012    0.297652758332265    0.937622336422271  0.0000
  Ge     Ge        0.643709678416721    0.689825776347485    0.997424384598228  0.0000
  Ge     Ge        0.854443368261157    0.376629675554458    0.999423004334561  0.0000
  Si     Si        0.949305922325712    0.055288180991069    0.618218252452868  0.0000
  Si     Si        0.550410526382778    0.014272047360893    0.612167206276833  0.0000
  Si     Si        0.351099893816404    0.363784524199023    0.244500909221852  0.0000
  Si     Si        0.150397285859509    0.696324414734835    0.942796131573808  0.0000
  O1     O1        0.131727924093901    0.127909437836110    0.350217863334733  0.0000
  O1     O1        0.373663229959883    0.899272263824845    0.360611311699564  0.0000
  O3     O3        0.917259681846168    0.245209492364697    0.596975182633682  0.0000
  O3     O3        0.582797068171788    0.825933540433943    0.589688638672956  0.0000
  O3     O3        0.881583014462728    0.918561688618738    0.589304052570917  0.0000
  O3     O3        0.618314703805460    0.152980561021840    0.588695349297162  0.0000
  O1     O1        0.076084584575460    0.793269644244042    0.338418429269545  0.0000
  O3     O3        0.412994545659608    0.254961636935605    0.323913201715009  0.0000
  O3     O3        0.023970943317560    0.019517010132150    0.534835349697142  0.0000
  O3     O3        0.476107233436695    0.056696739550994    0.528524336329948  0.0000
  O1     O1        0.974650921904811    0.059733155071217    0.282024275550210  0.0000
  O1     O1        0.522777747216778    0.002055547335145    0.277951606735200  0.0000
  O3     O3        0.972796595427481    0.029873760747924    0.771399713171724  0.0000
  O3     O3        0.525740240886091    0.024283730122475    0.765580178028994  0.0000
  O1     O1        0.631503499431147    0.134223704783847    0.099323121962540  0.0000
  O1     O1        0.867182919778253    0.927329396558120    0.099381304044236  0.0000
  O1     O1        0.415136554611811    0.274529918408071    0.839213535015261  0.0000
  O3     O3        0.093379150663389    0.803905965097633    0.852086604525379  0.0000
  O1     O1        0.373673502380134    0.928845870928694    0.845087171064725  0.0000
  O1     O1        0.116408314964956    0.165740260473737    0.841507369743920  0.0000
  O1     O1        0.575286087596465    0.794155157597873    0.081002839871419  0.0000
  O1     O1        0.922689373732656    0.269054787903592    0.084409338644407  0.0000
  O1     O1        0.478888470362338    0.067467321501555    0.022414888959069  0.0000
  O1     O1        0.020335455861384    0.997519218740610    0.029352829582170  0.0000
  O1     O1        0.152631697482497    0.482192140230778    0.314835073640514  0.0000
  O3     O3        0.340224321933689    0.549245657661014    0.307114003266008  0.0000
  O1     O1        0.843946947747011    0.571431146458514    0.617396426986012  0.0000
  O1     O1        0.655334689475294    0.499478067206464    0.616709636792975  0.0000
  O3     O3        0.270970699243277    0.258406239105152    0.248688180130333  0.0000
  O1     O1        0.230544069154335    0.795784425326108    0.267103459753129  0.0000
  O1     O1        0.765623012261302    0.261832484026350    0.679670496720401  0.0000
  O1     O1        0.733614325419250    0.807327843929122    0.676789192409582  0.0000
  O1     O1        0.139622578339663    0.266343755568422    0.096477484349809  0.0000
  O1     O1        0.359931873082580    0.798520994218675    0.101919514675142  0.0000
  O1     O1        0.883196179549476    0.397847480396189    0.838800055954731  0.0000
  O1     O1        0.616186259976568    0.670071807410231    0.836185896269213  0.0000
  O1     O1        0.857829622108212    0.783832711016005    0.844425789044988  0.0000
  O1     O1        0.639577203175699    0.280303809586595    0.843558034940829  0.0000
  O3     O3        0.119387321481146    0.670117809011968    0.090757262402416  0.0000
  O3     O3        0.376771235920694    0.393991122096081    0.094915263768980  0.0000
  O1     O1        0.657746380521032    0.488974470112833    0.061505957926432  0.0000
  O1     O1        0.840150913824171    0.574006671641467    0.063799747945488  0.0000
  O1     O1        0.342904257256520    0.584863790079338    0.876015700398019  0.0000
  O3     O3        0.162861979872388    0.510379881253243    0.884544392900234  0.0000
  O1     O1        0.770599515129215    0.257473041208719    0.999633653102617  0.0000
  O1     O1        0.727484716198561    0.809246007900065    0.000450704490746  0.0000
  O1     O1        0.265954671597980    0.260878625279991    0.925917132849035  0.0000
  O3     O3        0.229456177994650    0.806338334704570    0.950999481309138  0.0000
