data_c01287.vasp
_audit_creation_method             Generated by GULP
_audit_author_name                 Salvador R. G. Balestra
_symmetry_space_group_name_H-M     'P 1             '
_symmetry_Int_Tables_number        1

loop_
_symmetry_equiv_pos_site_id
_symmetry_equiv_pos_as_xyz
_cell_length_a                       17.4582
_cell_length_b                        7.8413
_cell_length_c                       10.1691
_cell_angle_alpha                   89.7689
_cell_angle_beta                    91.0714
_cell_angle_gamma                   88.0172

loop_
_atom_site_label
_atom_site_type_symbol
_atom_site_fract_x
_atom_site_fract_y
_atom_site_fract_z
_atom_site_charge
  Ge     Ge        0.052090000000021    0.000000000000000    0.372269999999958  0.0000
  Ge     Ge        0.448016386525677    0.949516561546419    0.410021487216368  0.0000
  Ge     Ge        0.559724513918906    0.001498063110418    0.167268408987607  0.0000
  Ge     Ge        0.453033944274240    0.938419605795947    0.908812477619462  0.0000
  Ge     Ge        0.050901128870007    0.002805687259828    0.860484731847406  0.0000
  Ge     Ge        0.149474139103563    0.314017472879317    0.297942105366452  0.0000
  Ge     Ge        0.358370353119632    0.630074294947796    0.293316666016489  0.0000
  Ge     Ge        0.829840128738585    0.243168977586362    0.721673121158475  0.0000
  Ge     Ge        0.668364433209103    0.718632356459119    0.730815141359955  0.0000
  Ge     Ge        0.853346581062704    0.644472891313188    0.725728453706216  0.0000
  Ge     Ge        0.645535943178935    0.317490124653669    0.727267477901514  0.0000
  Ge     Ge        0.174550973082439    0.712954746717663    0.295976206911698  0.0000
  Ge     Ge        0.652950647406186    0.311436735738415    0.046463809390932  0.0000
  Ge     Ge        0.861022862639616    0.630813851145635    0.043245780247841  0.0000
  Ge     Ge        0.326520218870609    0.226240215682168    0.980604458400599  0.0000
  Ge     Ge        0.173806659877747    0.715421295832245    0.976897085664350  0.0000
  Ge     Ge        0.356181113255277    0.627469932403783    0.976113527294906  0.0000
  Ge     Ge        0.144946112704561    0.312308851823853    0.978518286739391  0.0000
  Ge     Ge        0.678367640168250    0.713385380499640    0.048732026765174  0.0000
  Ge     Ge        0.836206691790891    0.229881274716467    0.040134875246402  0.0000
  Si     Si        0.943417127141860    0.953352658528075    0.610384825885468  0.0000
  Si     Si        0.550171953437595    0.008217132231426    0.659211002463171  0.0000
  Si     Si        0.954373022980632    0.938045199746500    0.114499009784348  0.0000
  Si     Si        0.329392572575915    0.235667046792309    0.292315628761159  0.0000
  O1     O1        0.088211226455871    0.198634054062415    0.390259031293360  0.0000
  O1     O1        0.421639073714624    0.743124810043579    0.387009152208808  0.0000
  O3     O3        0.873184842552392    0.087652599326450    0.626596247080548  0.0000
  O3     O3        0.618219028854472    0.868210248358889    0.634680060837981  0.0000
  O3     O3        0.917118140611433    0.763258918372640    0.639314269235056  0.0000
  O3     O3        0.581248312919315    0.196561990784524    0.638413264145505  0.0000
  O1     O1        0.126775916128869    0.855026387697311    0.394900539934339  0.0000
  O3     O3        0.371470038446191    0.089955555192065    0.379927655199803  0.0000
  O3     O3        0.972131582505924    0.963061459457987    0.461343580679569  0.0000
  O3     O3        0.474721367826185    0.973292420211032    0.574660736797712  0.0000
  O3     O3        0.025440663727387    0.977934731514463    0.206882213590855  0.0000
  O1     O1        0.528281781791712    0.996471079476063    0.325838768845966  0.0000
  O3     O3        0.016448267156718    0.000517750541345    0.700240469438122  0.0000
  O3     O3        0.528551076034813    0.988659169748187    0.812939868796393  0.0000
  O1     O1        0.587634175091383    0.205122125362220    0.134774994331250  0.0000
  O3     O3        0.923897002147581    0.748622640910813    0.137106757892634  0.0000
  O1     O1        0.376827968159514    0.082492347369949    0.889541635056394  0.0000
  O1     O1        0.128513846991406    0.864488451529724    0.877058212453627  0.0000
  O1     O1        0.419392055100679    0.737539103404218    0.883583635399736  0.0000
  O1     O1        0.076981100366236    0.208005116205317    0.890101520617851  0.0000
  O1     O1        0.636747124288195    0.861907597917455    0.148619945585798  0.0000
  O3     O3        0.885759590405018    0.078515883652319    0.134059179481423  0.0000
  O1     O1        0.483846552012805    0.945260923193617    0.070209966997046  0.0000
  O3     O3        0.978457328079193    0.944012779503143    0.961881147486949  0.0000
  O1     O1        0.158126259931983    0.513041884539378    0.359420460103563  0.0000
  O3     O3        0.346571898100681    0.422930393207258    0.349295645069008  0.0000
  O1     O1        0.843810656761242    0.444330721419766    0.659813064841400  0.0000
  O1     O1        0.651566144352463    0.519513474810306    0.665964769296465  0.0000
  O3     O3        0.238695401028223    0.208226418506939    0.291424842743476  0.0000
  O1     O1        0.271401038527576    0.739342329271207    0.297255316177770  0.0000
  O1     O1        0.733422236603670    0.211631465932466    0.724488621754562  0.0000
  O1     O1        0.765174857832259    0.749175874327663    0.727167857182861  0.0000
  O1     O1        0.115936200282088    0.328624368877865    0.138463248519390  0.0000
  O1     O1        0.390741006633274    0.618201659485318    0.136242100231593  0.0000
  O1     O1        0.865891479310935    0.225365046119259    0.879578160718966  0.0000
  O1     O1        0.639548714243426    0.728216892010660    0.891671760256820  0.0000
  O1     O1        0.888753785773699    0.612369929399861    0.882303262341866  0.0000
  O1     O1        0.618572918387900    0.336145331238329    0.887813595604972  0.0000
  O1     O1        0.141692443437850    0.729100995892587    0.135438898866161  0.0000
  O3     O3        0.359222961535870    0.222274670819136    0.143549644089040  0.0000
  O1     O1        0.666050521161379    0.510647205437532    0.109537683083287  0.0000
  O1     O1        0.853173188002321    0.429528130015929    0.104707840564568  0.0000
  O1     O1        0.342387463381765    0.427590168985423    0.918625579658146  0.0000
  O1     O1        0.157554606637646    0.512971123490195    0.918276295605590  0.0000
  O1     O1        0.739648059173360    0.198802835883911    0.043511637891913  0.0000
  O1     O1        0.774684992264578    0.742728834508050    0.039068336889978  0.0000
  O1     O1        0.230336420812673    0.194243203848532    0.973987402087111  0.0000
  O1     O1        0.270583800892046    0.743806854418110    0.979138543128401  0.0000
