data_c01216.vasp
_audit_creation_method             Generated by GULP
_audit_author_name                 Salvador R. G. Balestra
_symmetry_space_group_name_H-M     'P 1             '
_symmetry_Int_Tables_number        1

loop_
_symmetry_equiv_pos_site_id
_symmetry_equiv_pos_as_xyz
_cell_length_a                       17.4714
_cell_length_b                        7.8400
_cell_length_c                       10.2374
_cell_angle_alpha                   90.6109
_cell_angle_beta                    89.7153
_cell_angle_gamma                   88.0206

loop_
_atom_site_label
_atom_site_type_symbol
_atom_site_fract_x
_atom_site_fract_y
_atom_site_fract_z
_atom_site_charge
  Ge     Ge        0.052090000000021    0.000000000000000    0.372269999999958  0.0000
  Ge     Ge        0.443175761979290    0.947887499805921    0.367505853171120  0.0000
  Ge     Ge        0.948602146692906    0.937000257983664    0.624782343091667  0.0000
  Ge     Ge        0.939512941532972    0.938927936449886    0.129295718259882  0.0000
  Ge     Ge        0.446988568633584    0.935552851548870    0.867269818792244  0.0000
  Ge     Ge        0.138271144711591    0.321202777830847    0.259283088380945  0.0000
  Ge     Ge        0.349266736294817    0.633161649587926    0.253506082605687  0.0000
  Ge     Ge        0.823194288645329    0.226137572745810    0.694939576291569  0.0000
  Ge     Ge        0.663816089264736    0.707337497752794    0.693457186609844  0.0000
  Ge     Ge        0.846752178763574    0.628251469002329    0.694462987764523  0.0000
  Ge     Ge        0.640454430356717    0.305429810151627    0.689279294802588  0.0000
  Ge     Ge        0.322227829451319    0.235186358936329    0.259117655801159  0.0000
  Ge     Ge        0.635417886549375    0.309206215720505    0.005278538430972  0.0000
  Ge     Ge        0.846222385716186    0.627331988427255    0.012504767244854  0.0000
  Ge     Ge        0.321826622514426    0.226116386920827    0.943737692137301  0.0000
  Ge     Ge        0.164072178386374    0.707113237260919    0.944253751724036  0.0000
  Ge     Ge        0.345916572549363    0.627999642367346    0.934114653435230  0.0000
  Ge     Ge        0.138243939422851    0.305896760268357    0.945488946233090  0.0000
  Ge     Ge        0.662620342079163    0.710449843930019    0.011166095569035  0.0000
  Ge     Ge        0.818899700617613    0.226093327121122    0.011742775886378  0.0000
  Si     Si        0.547894035541150    0.994736576639057    0.615739454527030  0.0000
  Si     Si        0.546369845493633    0.000764533001993    0.119161308794503  0.0000
  Si     Si        0.042836545597206    0.997484643411638    0.881072020328874  0.0000
  Si     Si        0.169284111655655    0.711196720556581    0.255250087494615  0.0000
  O1     O1        0.076174662015493    0.208421864677460    0.352415446324989  0.0000
  O1     O1        0.414841532569127    0.744345686141862    0.339623864979581  0.0000
  O1     O1        0.875404325097849    0.085107036993763    0.599277043617898  0.0000
  O3     O3        0.615795762344750    0.852822845926108    0.594742538613970  0.0000
  O1     O1        0.912268631773318    0.738055535393009    0.606241379397509  0.0000
  O3     O3        0.578988187686233    0.183173732348227    0.597052009689122  0.0000
  O3     O3        0.129150136825946    0.863969623415151    0.336731264411632  0.0000
  O1     O1        0.365313583552471    0.083486053453804    0.354990064957914  0.0000
  O1     O1        0.027643430823358    0.970245262351743    0.533319371514005  0.0000
  O3     O3        0.475706239721733    0.959761694406311    0.526845089709601  0.0000
  O1     O1        0.971250841507401    0.952346452940036    0.286936479687125  0.0000
  O3     O3        0.518110581044738    0.002999886966248    0.268279569679045  0.0000
  O3     O3        0.972405944583816    0.959285681283344    0.789625722773135  0.0000
  O3     O3        0.522286775906811    0.977958554996204    0.767592585043756  0.0000
  O3     O3        0.567589518900423    0.193237611044242    0.084702415003197  0.0000
  O1     O1        0.912676646026608    0.733724406317609    0.100616813916409  0.0000
  O1     O1        0.372057654771705    0.080753589845004    0.849403753782529  0.0000
  O3     O3        0.110760865837611    0.854896042125781    0.858366249048859  0.0000
  O1     O1        0.411240229765587    0.735940418752269    0.844638201105045  0.0000
  O3     O3        0.075900111649515    0.183750345022564    0.855781847015644  0.0000
  O3     O3        0.619338600134197    0.871452651994387    0.103678549345480  0.0000
  O1     O1        0.861916726255166    0.075224943392451    0.107961259116961  0.0000
  O3     O3        0.477934735722445    0.938695606653063    0.028293939846698  0.0000
  O3     O3        0.015970042160084    0.992711788364465    0.031949995828548  0.0000
  O3     O3        0.150573117363931    0.527820166010522    0.316848011731117  0.0000
  O1     O1        0.341956309327248    0.435049842624973    0.318722537041531  0.0000
  O1     O1        0.835278606655951    0.427908070970506    0.633503310274120  0.0000
  O1     O1        0.650331900599425    0.505636351035524    0.628661940185196  0.0000
  O1     O1        0.225277744555036    0.213196839049500    0.259365508438191  0.0000
  O3     O3        0.259781617598504    0.738021364776330    0.254388628655980  0.0000
  O1     O1        0.726697153577395    0.192817340116173    0.693103537373383  0.0000
  O1     O1        0.760099613300234    0.741794796595822    0.694267183741450  0.0000
  O1     O1        0.104483885689683    0.328313402144038    0.102894866553662  0.0000
  O1     O1        0.376455823089438    0.613444734182531    0.093332484090910  0.0000
  O1     O1        0.853448079098657    0.212835495467969    0.854485394936252  0.0000
  O1     O1        0.631139748897576    0.718966691784999    0.852355437255030  0.0000
  O1     O1        0.876774652590734    0.609204352051961    0.853316284576055  0.0000
  O1     O1        0.606969596364076    0.332937337846235    0.846190254856915  0.0000
  O3     O3        0.137625308396030    0.710784754958309    0.107790332639643  0.0000
  O1     O1        0.355570649037811    0.214471879306730    0.101240095580431  0.0000
  O1     O1        0.643448778780681    0.510662463594459    0.070595737233335  0.0000
  O1     O1        0.834936937484608    0.427268101478107    0.073411632099277  0.0000
  O1     O1        0.334080162405182    0.425595652221228    0.878025012914050  0.0000
  O1     O1        0.147253396437560    0.505363784603637    0.882864178624989  0.0000
  O1     O1        0.721872663070569    0.199481655001267    0.008644613323487  0.0000
  O1     O1        0.759284223360447    0.738138655945489    0.014545843344248  0.0000
  O1     O1        0.225194144500930    0.195906369764251    0.948090497216350  0.0000
  O1     O1        0.259517070109935    0.742614144375364    0.930713701657843  0.0000
