data_c01239.vasp
_audit_creation_method             Generated by GULP
_audit_author_name                 Salvador R. G. Balestra
_symmetry_space_group_name_H-M     'P 1             '
_symmetry_Int_Tables_number        1

loop_
_symmetry_equiv_pos_site_id
_symmetry_equiv_pos_as_xyz
_cell_length_a                       17.7237
_cell_length_b                        7.8388
_cell_length_c                       10.3833
_cell_angle_alpha                   89.9049
_cell_angle_beta                    89.8713
_cell_angle_gamma                   89.8085

loop_
_atom_site_label
_atom_site_type_symbol
_atom_site_fract_x
_atom_site_fract_y
_atom_site_fract_z
_atom_site_charge
  Ge     Ge        0.052090000000021    0.000000000000000    0.372269999999958  0.0000
  Ge     Ge        0.453937862270600    0.960090567378560    0.374348863902174  0.0000
  Ge     Ge        0.560104730069903    0.955603948040127    0.123214896339745  0.0000
  Ge     Ge        0.945284583543980    0.981472712895683    0.121913455216590  0.0000
  Ge     Ge        0.454240849180290    0.958240227580415    0.870484186641571  0.0000
  Ge     Ge        0.056933499864939    0.985067550276744    0.877532094921569  0.0000
  Ge     Ge        0.153261052183874    0.306310400259103    0.262515111518419  0.0000
  Ge     Ge        0.354348558684124    0.651215512605729    0.259314440827003  0.0000
  Ge     Ge        0.853316969612142    0.298473762297069    0.691936692551853  0.0000
  Ge     Ge        0.656580018754643    0.658403404386963    0.698811563847834  0.0000
  Ge     Ge        0.839476861419670    0.706002029115824    0.700348204361547  0.0000
  Ge     Ge        0.672150019885303    0.251538749897886    0.690277981792072  0.0000
  Ge     Ge        0.174787142916976    0.716277716841695    0.256945291105446  0.0000
  Ge     Ge        0.332011439614375    0.241253760630822    0.263435149779081  0.0000
  Ge     Ge        0.677783400441941    0.234584001412984    0.003172263607905  0.0000
  Ge     Ge        0.833213534078089    0.691135033319686    0.009771796390508  0.0000
  Ge     Ge        0.332666267983215    0.236163202980051    0.950572636847205  0.0000
  Ge     Ge        0.174644729418901    0.696764072420383    0.944240731630373  0.0000
  Ge     Ge        0.355783897505298    0.641211933575218    0.944067390957516  0.0000
  Ge     Ge        0.651751655984179    0.637720132725362    0.011062496923547  0.0000
  Si     Si        0.954492701998531    0.991152607230400    0.625630665692768  0.0000
  Si     Si        0.557320814097428    0.967755018811343    0.621744341924916  0.0000
  Si     Si        0.155386254437689    0.296538739145001    0.956039736504766  0.0000
  Si     Si        0.853930646410162    0.292740405145008    0.998380317143930  0.0000
  O1     O1        0.086125009686277    0.202398622552071    0.349931778704466  0.0000
  O1     O1        0.420365060995653    0.758868664287425    0.347160213387562  0.0000
  O3     O3        0.916287436632039    0.176031216946648    0.604997592588659  0.0000
  O3     O3        0.597879171237356    0.785372526603000    0.606065333468964  0.0000
  O3     O3        0.891052298103602    0.846414999605763    0.607266116251884  0.0000
  O3     O3        0.618335633202051    0.116006590562693    0.596863293220059  0.0000
  O1     O1        0.123654517328432    0.856558623079460    0.347276522387523  0.0000
  O1     O1        0.382273760556558    0.104952921084934    0.358831316531531  0.0000
  O3     O3        0.024538669226233    0.969538993713866    0.531352914937778  0.0000
  O3     O3        0.485062382522618    0.979436833302646    0.531699830782323  0.0000
  O1     O1        0.973844372186849    0.973979965933840    0.279186487381569  0.0000
  O1     O1        0.529997889786885    0.997143608923153    0.276541148415024  0.0000
  O3     O3        0.982831972929091    0.976829938547037    0.772661668098510  0.0000
  O3     O3        0.528626416224479    0.991731024976897    0.768473856448184  0.0000
  O1     O1        0.638326622822457    0.078779519642526    0.093633484144131  0.0000
  O1     O1        0.878010218273572    0.826065983434710    0.111942066823745  0.0000
  O1     O1        0.378016083755075    0.094241299774599    0.853642986051507  0.0000
  O1     O1        0.123311171067734    0.828790040544263    0.847093083091799  0.0000
  O1     O1        0.420381769791386    0.754656039299329    0.856215296797418  0.0000
  O3     O3        0.098706337591554    0.184835293170503    0.871656049436918  0.0000
  O1     O1        0.587544850796433    0.746662731620773    0.102426906338817  0.0000
  O3     O3        0.912670063964394    0.182819723073964    0.079991519647859  0.0000
  O1     O1        0.486875807747555    0.003248167774314    0.022484234381901  0.0000
  O1     O1        0.022522099333269    0.940329939341269    0.028239522862328  0.0000
  O1     O1        0.162977302067489    0.511059130690604    0.314445210768029  0.0000
  O1     O1        0.343298617547937    0.448336187614170    0.315989637360841  0.0000
  O1     O1        0.850345658785681    0.503806500832228    0.637237400426628  0.0000
  O1     O1        0.661692844918050    0.457530888575931    0.635137849410965  0.0000
  O1     O1        0.237407129395027    0.197471109087652    0.272562111999086  0.0000
  O1     O1        0.269638718185115    0.759807551258111    0.263504151439201  0.0000
  O1     O1        0.766510372063290    0.203151629919431    0.681016807183129  0.0000
  O1     O1        0.744551133415760    0.750812077094104    0.700807822721052  0.0000
  O3     O3        0.125157218140953    0.308522678748746    0.102029994796055  0.0000
  O1     O1        0.384767203026453    0.643792026823748    0.102206396701045  0.0000
  O3     O3        0.881691657352772    0.311188639884504    0.851488166012537  0.0000
  O1     O1        0.621980830879345    0.643110017073267    0.852877990108881  0.0000
  O1     O1        0.869351156665436    0.715756277069592    0.857490856195942  0.0000
  O1     O1        0.644262469376524    0.238390654641619    0.848281410514322  0.0000
  O1     O1        0.144947653169067    0.724292958985576    0.100370055833069  0.0000
  O1     O1        0.363484983451217    0.224754525596415    0.107502000641696  0.0000
  O1     O1        0.658517247702405    0.432720304626157    0.066707712489340  0.0000
  O3     O3        0.844343269732159    0.479735023942188    0.058736044320797  0.0000
  O1     O1        0.350183078860633    0.436822141760250    0.890036877167268  0.0000
  O3     O3        0.164074674513571    0.484736521396888    0.897776757260591  0.0000
  O3     O3        0.773839618879167    0.196460589851032    0.996967471746576  0.0000
  O1     O1        0.738704732227701    0.734008977851114    0.011509331824717  0.0000
  O3     O3        0.236395625041634    0.201658242009680    0.957416497754284  0.0000
  O1     O1        0.269075348632191    0.740499501987524    0.936253630169295  0.0000
