data_c01205.vasp
_audit_creation_method             Generated by GULP
_audit_author_name                 Salvador R. G. Balestra
_symmetry_space_group_name_H-M     'P 1             '
_symmetry_Int_Tables_number        1

loop_
_symmetry_equiv_pos_site_id
_symmetry_equiv_pos_as_xyz
_cell_length_a                       17.5449
_cell_length_b                        7.8497
_cell_length_c                       10.1553
_cell_angle_alpha                   89.8924
_cell_angle_beta                    89.9821
_cell_angle_gamma                   87.9566

loop_
_atom_site_label
_atom_site_type_symbol
_atom_site_fract_x
_atom_site_fract_y
_atom_site_fract_z
_atom_site_charge
  Ge     Ge        0.052090000000021    0.000000000000000    0.372269999999958  0.0000
  Ge     Ge        0.449527177089440    0.947219801261030    0.370299283184294  0.0000
  Ge     Ge        0.943255007398268    0.944945903297603    0.618473592957918  0.0000
  Ge     Ge        0.952145315399267    0.932403954228204    0.114153258587439  0.0000
  Ge     Ge        0.452619620317092    0.932529482988232    0.866484506915676  0.0000
  Ge     Ge        0.056686894351435    0.994944332202557    0.860457462322833  0.0000
  Ge     Ge        0.151667050354326    0.311544647295317    0.304871875741765  0.0000
  Ge     Ge        0.356939397812756    0.628205205048874    0.295943617586380  0.0000
  Ge     Ge        0.669526155350666    0.700479014880660    0.727131925990974  0.0000
  Ge     Ge        0.853448017276376    0.625655209518368    0.733916720129254  0.0000
  Ge     Ge        0.646157695932506    0.302713063233806    0.730582657086117  0.0000
  Ge     Ge        0.174361605148425    0.711042984418833    0.296801647309472  0.0000
  Ge     Ge        0.644966422617793    0.301668187354125    0.049368765328067  0.0000
  Ge     Ge        0.850385840527923    0.626218478996183    0.052983518635474  0.0000
  Ge     Ge        0.329337207254866    0.220611847426329    0.984337267649303  0.0000
  Ge     Ge        0.177433854242778    0.707346214952140    0.978068626587559  0.0000
  Ge     Ge        0.360555731291832    0.621555714281243    0.979891081519122  0.0000
  Ge     Ge        0.148083137653827    0.305867869378973    0.983318539106867  0.0000
  Ge     Ge        0.667854999289736    0.703067143500237    0.046978295205643  0.0000
  Ge     Ge        0.826275824972694    0.224515963914887    0.045780196879514  0.0000
  Si     Si        0.555451860282449    0.994102265662144    0.616130641349038  0.0000
  Si     Si        0.551667993040775    0.994324835320011    0.119039394828646  0.0000
  Si     Si        0.826992409500439    0.233039831807168    0.734381109444365  0.0000
  Si     Si        0.329630718039636    0.234802025453907    0.298608943129900  0.0000
  O1     O1        0.088729010561252    0.197471646338832    0.395303336232965  0.0000
  O1     O1        0.415657289203868    0.747431337640212    0.392157409584422  0.0000
  O3     O3        0.867702714063192    0.086081727377084    0.648351885153317  0.0000
  O3     O3        0.625208431460386    0.859723214444588    0.635627498044881  0.0000
  O1     O1        0.916643212901570    0.739275726039913    0.643512475592998  0.0000
  O3     O3        0.583487629235857    0.182908455185016    0.643478141982606  0.0000
  O1     O1        0.125485523188907    0.851924221577356    0.396117361428015  0.0000
  O3     O3        0.376226273121095    0.099343734992481    0.388272064547067  0.0000
  O1     O1        0.970215695420393    0.964835368615101    0.455934389857005  0.0000
  O3     O3        0.526968190525530    0.986849917448923    0.466146587282702  0.0000
  O1     O1        0.028392595986300    0.978891728195189    0.207213455420024  0.0000
  O3     O3        0.479410257813166    0.958786180809965    0.207170252263460  0.0000
  O1     O1        0.025406340195304    0.992009098953284    0.700030381461256  0.0000
  O3     O3        0.483008824317602    0.949660738868410    0.705325797543679  0.0000
  O3     O3        0.582953669291190    0.182343007576123    0.141525023270670  0.0000
  O1     O1        0.913996313313444    0.736494426694295    0.144191755511857  0.0000
  O1     O1        0.374755583877153    0.065599706214195    0.894211412043970  0.0000
  O1     O1        0.134624090580189    0.858698167423731    0.879328445378834  0.0000
  O1     O1        0.425904472561753    0.726375139368633    0.887677945811482  0.0000
  O1     O1        0.080213846036864    0.199654906860506    0.899195061162134  0.0000
  O3     O3        0.618729863034964    0.851604198049116    0.142207656236789  0.0000
  O1     O1        0.878449225092134    0.081645488076390    0.135706170660085  0.0000
  O3     O3        0.527617704467081    0.985485884368024    0.965412807314253  0.0000
  O1     O1        0.980757473018403    0.931316441788036    0.951891254212931  0.0000
  O1     O1        0.159354885889978    0.512034039019940    0.363601244253594  0.0000
  O3     O3        0.343469406461848    0.424500052840892    0.353954313837077  0.0000
  O3     O3        0.844370251220470    0.418911855659506    0.675786321673488  0.0000
  O1     O1        0.650949252085112    0.502562689190977    0.663888080653281  0.0000
  O3     O3        0.239925926075348    0.201988309242658    0.303289608016419  0.0000
  O1     O1        0.270516055856213    0.739049453375176    0.292163787889905  0.0000
  O3     O3        0.736651875501825    0.206807055858808    0.735397730106138  0.0000
  O1     O1        0.765533571224660    0.728738136071649    0.725394156330429  0.0000
  O1     O1        0.120509610311851    0.325844704805308    0.144845964249693  0.0000
  O1     O1        0.393101933731654    0.615285978482869    0.139747174424395  0.0000
  O3     O3        0.858304304704524    0.220984017352473    0.883309929935542  0.0000
  O1     O1        0.636689880807240    0.709808708791090    0.886272753424609  0.0000
  O1     O1        0.883574304687034    0.615446155092115    0.893223760784009  0.0000
  O1     O1        0.614424058730421    0.323395103290880    0.889202360278071  0.0000
  O1     O1        0.142268444033188    0.723798151194999    0.136209904731068  0.0000
  O3     O3        0.358057409613977    0.221023310270424    0.147947221984720  0.0000
  O1     O1        0.653448845186802    0.502095981254213    0.111104541970756  0.0000
  O1     O1        0.838886436515558    0.425167853160034    0.110350447372569  0.0000
  O1     O1        0.349300922681162    0.419021508846926    0.922704301487718  0.0000
  O1     O1        0.159675375686877    0.505817681532012    0.920211978389301  0.0000
  O1     O1        0.730987070583067    0.189007898914583    0.049045331528355  0.0000
  O1     O1        0.763527863652927    0.737112243899250    0.049235315104876  0.0000
  O1     O1        0.233463837972712    0.190701338004439    0.976403044104691  0.0000
  O1     O1        0.274006500862912    0.731884479017163    0.979406971628117  0.0000
