data_c01286.vasp
_audit_creation_method             Generated by GULP
_audit_author_name                 Salvador R. G. Balestra
_symmetry_space_group_name_H-M     'P 1             '
_symmetry_Int_Tables_number        1

loop_
_symmetry_equiv_pos_site_id
_symmetry_equiv_pos_as_xyz
_cell_length_a                       17.4982
_cell_length_b                        7.8203
_cell_length_c                       10.1811
_cell_angle_alpha                   89.6928
_cell_angle_beta                    90.3851
_cell_angle_gamma                   88.5563

loop_
_atom_site_label
_atom_site_type_symbol
_atom_site_fract_x
_atom_site_fract_y
_atom_site_fract_z
_atom_site_charge
  Ge     Ge        0.052090000000021    0.000000000000000    0.372269999999958  0.0000
  Ge     Ge        0.451454535902161    0.940836611997718    0.380679740554942  0.0000
  Ge     Ge        0.555882749001402    0.998874011319415    0.124259518329821  0.0000
  Ge     Ge        0.449429582928749    0.947484356664782    0.868534910089799  0.0000
  Ge     Ge        0.057018942669266    0.005302674541074    0.857782831057518  0.0000
  Ge     Ge        0.147992185880185    0.314212259087618    0.290952786030105  0.0000
  Ge     Ge        0.355113145491706    0.629535907548743    0.300558314272320  0.0000
  Ge     Ge        0.832172668651830    0.230779427587944    0.726395068123482  0.0000
  Ge     Ge        0.673193406168216    0.703221166934776    0.733391319417176  0.0000
  Ge     Ge        0.857682042997899    0.631835481118099    0.727675969947547  0.0000
  Ge     Ge        0.648301150706127    0.301556468208594    0.738430821942693  0.0000
  Ge     Ge        0.175742747006973    0.718627160049851    0.294805600874597  0.0000
  Ge     Ge        0.328801290171941    0.223839209588883    0.293474836465877  0.0000
  Ge     Ge        0.658540183385302    0.306480104637150    0.058927299839391  0.0000
  Ge     Ge        0.861166479414512    0.630662250711175    0.046365283686953  0.0000
  Ge     Ge        0.331370812880005    0.241169344984770    0.977087328362106  0.0000
  Ge     Ge        0.178589407615790    0.722136869834188    0.975299864091773  0.0000
  Ge     Ge        0.148032097791430    0.321233556618613    0.972465528848709  0.0000
  Ge     Ge        0.679717479191561    0.708904778074080    0.051391716956094  0.0000
  Ge     Ge        0.839590835381101    0.227232932066733    0.045210470909416  0.0000
  Si     Si        0.947458421251221    0.943310615497303    0.614588044989589  0.0000
  Si     Si        0.555842484568639    0.991422403249396    0.626284977750493  0.0000
  Si     Si        0.958948934212688    0.936480893025484    0.112763816011207  0.0000
  Si     Si        0.357044386166838    0.638763475152196    0.987958505312269  0.0000
  O1     O1        0.084204253517145    0.203615172784002    0.384900352182176  0.0000
  O1     O1        0.420509402053994    0.735419057455241    0.394102841655761  0.0000
  O3     O3        0.876008312801583    0.070851971026223    0.636663089522638  0.0000
  O3     O3        0.627755583259683    0.863079085045821    0.643260738906451  0.0000
  O3     O3        0.923625089222626    0.750288022882538    0.643102923156164  0.0000
  O3     O3        0.578808929130923    0.183093230413879    0.662604973420474  0.0000
  O1     O1        0.126134045799849    0.854955525869682    0.395649485651845  0.0000
  O1     O1        0.376224322426756    0.084195686221753    0.396985536114328  0.0000
  O3     O3        0.972948427791399    0.959440589290826    0.463749861118069  0.0000
  O3     O3        0.529859143544817    0.986769964194956    0.474431490058413  0.0000
  O3     O3        0.029069100392343    0.971741538150795    0.206656756934383  0.0000
  O1     O1        0.479402929453986    0.962485442980242    0.218872699470102  0.0000
  O3     O3        0.021739234605495    0.993781988692129    0.699265886781198  0.0000
  O3     O3        0.482315677938565    0.933267594183991    0.708144674892653  0.0000
  O1     O1        0.595160970771107    0.195877802653626    0.150562460095796  0.0000
  O3     O3        0.925746872262646    0.748457455690710    0.135427512769710  0.0000
  O1     O1        0.377585861645573    0.100430641005358    0.875156850631483  0.0000
  O1     O1        0.137390983005567    0.876840589184185    0.877409515362077  0.0000
  O3     O3        0.419108910621059    0.744726511134077    0.909571974799622  0.0000
  O1     O1        0.082077791252812    0.213017024916140    0.882509021990706  0.0000
  O1     O1        0.628634980813392    0.848163156578128    0.145941996424878  0.0000
  O3     O3        0.892218751401396    0.079365670546770    0.135482210480723  0.0000
  O1     O1        0.526038667280125    0.000237982896206    0.962248133855050  0.0000
  O3     O3        0.985378339150753    0.942543242146792    0.961106602117362  0.0000
  O1     O1        0.162850462417423    0.512433041068646    0.351882903416273  0.0000
  O1     O1        0.342264520937166    0.427181276144367    0.355004908630975  0.0000
  O1     O1        0.848791455603402    0.430748556588215    0.662395458588492  0.0000
  O1     O1        0.654301261464279    0.503787480502992    0.671958499314465  0.0000
  O1     O1        0.232300435701842    0.193338692303100    0.288093339620946  0.0000
  O1     O1        0.272070153888953    0.752410467956418    0.302717005422954  0.0000
  O1     O1        0.735840250794669    0.197929090934703    0.726564694224396  0.0000
  O1     O1        0.769816138872378    0.734095767971409    0.726896691069542  0.0000
  O1     O1        0.116319036095556    0.334957412881352    0.131565021274136  0.0000
  O3     O3        0.384363020643259    0.614150788039295    0.138050353251064  0.0000
  O1     O1        0.867723420726404    0.220551701452392    0.883706142409941  0.0000
  O1     O1        0.643786447841470    0.718326321167482    0.893283723989287  0.0000
  O1     O1        0.889242730060378    0.605487135696594    0.886024077622184  0.0000
  O1     O1        0.625750469147013    0.330248909297505    0.899590441153416  0.0000
  O1     O1        0.145998524107610    0.736065456313257    0.133544690797543  0.0000
  O1     O1        0.363415729757057    0.208520032977358    0.135339433235544  0.0000
  O1     O1        0.672045331709479    0.506433290156059    0.118251225789221  0.0000
  O1     O1        0.853288834379085    0.429020625776487    0.109184186317940  0.0000
  O3     O3        0.346656911173862    0.451374664442422    0.927431559527773  0.0000
  O1     O1        0.158015460920109    0.524471822115501    0.912720037721615  0.0000
  O1     O1        0.743792187486696    0.190136070536233    0.052068448130283  0.0000
  O1     O1        0.775841321642229    0.745261108924781    0.045403096139193  0.0000
  O1     O1        0.234758595568419    0.212031128357430    0.971323274580484  0.0000
  O3     O3        0.276831089624790    0.744954817324750    0.982166128809740  0.0000
