data_c01264.vasp
_audit_creation_method             Generated by GULP
_audit_author_name                 Salvador R. G. Balestra
_symmetry_space_group_name_H-M     'P 1             '
_symmetry_Int_Tables_number        1

loop_
_symmetry_equiv_pos_site_id
_symmetry_equiv_pos_as_xyz
_cell_length_a                       17.2913
_cell_length_b                        7.8056
_cell_length_c                       10.4716
_cell_angle_alpha                   91.3709
_cell_angle_beta                    90.6745
_cell_angle_gamma                   91.5975

loop_
_atom_site_label
_atom_site_type_symbol
_atom_site_fract_x
_atom_site_fract_y
_atom_site_fract_z
_atom_site_charge
  Ge     Ge        0.052090000000021    0.000000000000000    0.372269999999958  0.0000
  Ge     Ge        0.456658580477558    0.049592357819150    0.366821340413794  0.0000
  Ge     Ge        0.551597844422780    0.018531635360998    0.095700356691020  0.0000
  Ge     Ge        0.949125565670865    0.015526521886628    0.111715677614054  0.0000
  Ge     Ge        0.437785365038433    0.023640666665502    0.851067946133803  0.0000
  Ge     Ge        0.051849564878432    0.986619732928378    0.861641618196311  0.0000
  Ge     Ge        0.175103308297797    0.277123129279595    0.285923852679175  0.0000
  Ge     Ge        0.330786087463648    0.763964363132806    0.281411155235601  0.0000
  Ge     Ge        0.825805999325622    0.252202232506098    0.727192687293297  0.0000
  Ge     Ge        0.662438081666473    0.705370556145570    0.710432992404683  0.0000
  Ge     Ge        0.848675128925456    0.667348886715268    0.711026496116122  0.0000
  Ge     Ge        0.145869280456330    0.680474560233593    0.286032341215281  0.0000
  Ge     Ge        0.360598029859505    0.360599855128017    0.277523634895129  0.0000
  Ge     Ge        0.857674690612879    0.680397106882302    0.020578350329039  0.0000
  Ge     Ge        0.357916647108530    0.353208303483038    0.968292788000682  0.0000
  Ge     Ge        0.136503038785079    0.665724988653706    0.976511810086121  0.0000
  Ge     Ge        0.320877140142993    0.751688617630296    0.970647257638349  0.0000
  Ge     Ge        0.172957880958776    0.267105029066198    0.974983999407031  0.0000
  Ge     Ge        0.673014822418254    0.738360969278396    0.025847206852358  0.0000
  Ge     Ge        0.821856842734501    0.273125402135477    0.033949526442964  0.0000
  Si     Si        0.944143217074683    0.977532110479052    0.612911255921413  0.0000
  Si     Si        0.549199582129885    0.998974513143948    0.625058540178136  0.0000
  Si     Si        0.650883966133197    0.314226539395777    0.730227469832965  0.0000
  Si     Si        0.648427553854955    0.351348306248358    0.034337005042759  0.0000
  O1     O1        0.132723235988945    0.133909468352861    0.387345458260582  0.0000
  O1     O1        0.376929839379437    0.914709803410241    0.379262746657087  0.0000
  O3     O3        0.871699482822577    0.096759102035584    0.640511341059684  0.0000
  O3     O3        0.606105025690298    0.841227928755693    0.624130414254427  0.0000
  O3     O3        0.913968571907416    0.780868203710372    0.618881678857867  0.0000
  O2     O2        0.586409447218513    0.165845360850586    0.702279679744855  0.0000
  O1     O1        0.081961654895178    0.793587436088768    0.377120356987898  0.0000
  O1     O1        0.427081109009681    0.255979979614146    0.367980515485841  0.0000
  O3     O3        0.976179136218894    0.023326042187807    0.475162183511487  0.0000
  O3     O3        0.529607002264084    0.036133670219101    0.479677546737447  0.0000
  O1     O1        0.016285349213585    0.062579174254726    0.227020850466972  0.0000
  O1     O1        0.494343572664522    0.985399145293721    0.222671017266834  0.0000
  O3     O3        0.016041703023632    0.012973788252834    0.709595057269934  0.0000
  O3     O3        0.469915871144087    0.966614052032809    0.699766977776763  0.0000
  O3     O3        0.578259624109659    0.234263589986874    0.080847119605835  0.0000
  O1     O1        0.924613233261663    0.799226248397383    0.108441799993172  0.0000
  O1     O1        0.420156035316635    0.237364963609355    0.874788716884171  0.0000
  O1     O1        0.068943141536530    0.774328401952999    0.890527256611439  0.0000
  O1     O1        0.352868019383078    0.910574053423772    0.873459284268207  0.0000
  O1     O1        0.137342006589958    0.102432917283002    0.878986930493593  0.0000
  O1     O1        0.633745570183331    0.902733167921131    0.109274883933255  0.0000
  O1     O1        0.867116278692470    0.133008763793274    0.130132198037956  0.0000
  O1     O1        0.503313288376202    0.949014187181195    0.960039850930542  0.0000
  O1     O1        0.988910257580517    0.073204803427404    0.968418715547154  0.0000
  O1     O1        0.125617252063168    0.465576805494566    0.291511062082525  0.0000
  O1     O1        0.380513847527908    0.576068549416205    0.281635624871050  0.0000
  O1     O1        0.868018905654613    0.452000229960070    0.710785113255610  0.0000
  O3     O3        0.622824864664091    0.498323409442085    0.687953534560105  0.0000
  O1     O1        0.269143968029933    0.321640310020088    0.334090113923408  0.0000
  O1     O1        0.239181228728415    0.723578299462991    0.337573214768276  0.0000
  O3     O3        0.731240255099060    0.264538273884858    0.667217204558046  0.0000
  O1     O1        0.755753230784088    0.696560979545274    0.657598503767809  0.0000
  O1     O1        0.179355820255264    0.201626491223202    0.130595416810784  0.0000
  O1     O1        0.321020949292573    0.828668522946005    0.126406421925754  0.0000
  O1     O1        0.822346130560425    0.186454135955179    0.881289728282987  0.0000
  O1     O1        0.665527603010306    0.777993448756529    0.865291566828144  0.0000
  O1     O1        0.861598618773795    0.746130003248544    0.864519701949970  0.0000
  O2     O2        0.669244539000899    0.334402566805943    0.882624679906652  0.0000
  O1     O1        0.134410549641759    0.745813554232422    0.131055337419932  0.0000
  O1     O1        0.368021971808664    0.283346578827457    0.122462260835644  0.0000
  O3     O3        0.625548546923034    0.545251602249734    0.060824283856534  0.0000
  O1     O1        0.872681629061000    0.466151268182317    0.030084240621687  0.0000
  O1     O1        0.376127645799563    0.570352809576774    0.962561411312503  0.0000
  O1     O1        0.117555306089393    0.448416765411601    0.971017414696552  0.0000
  O3     O3        0.730379541979161    0.303899568785722    0.096685461114297  0.0000
  O1     O1        0.766438722517211    0.720814532159639    0.074442939446552  0.0000
  O1     O1        0.263362741094181    0.319768508466297    0.920577140802670  0.0000
  O1     O1        0.228533807755854    0.697360186053351    0.920829169277327  0.0000
