data_c01236.vasp
_audit_creation_method             Generated by GULP
_audit_author_name                 Salvador R. G. Balestra
_symmetry_space_group_name_H-M     'P 1             '
_symmetry_Int_Tables_number        1

loop_
_symmetry_equiv_pos_site_id
_symmetry_equiv_pos_as_xyz
_cell_length_a                       17.6159
_cell_length_b                        7.8860
_cell_length_c                       10.3994
_cell_angle_alpha                   89.9525
_cell_angle_beta                    90.8455
_cell_angle_gamma                   89.7760

loop_
_atom_site_label
_atom_site_type_symbol
_atom_site_fract_x
_atom_site_fract_y
_atom_site_fract_z
_atom_site_charge
  Ge     Ge        0.052090000000021    0.000000000000000    0.372269999999958  0.0000
  Ge     Ge        0.451181089834817    0.965786808407908    0.341012228551038  0.0000
  Ge     Ge        0.946465795019074    0.989821323020872    0.625991922275338  0.0000
  Ge     Ge        0.443115137866894    0.964828036835239    0.836459217032499  0.0000
  Ge     Ge        0.147592388129701    0.312921197329153    0.267138218017231  0.0000
  Ge     Ge        0.352561707953305    0.652151194865191    0.256876631624624  0.0000
  Ge     Ge        0.846039006220894    0.302084365475369    0.706958796549241  0.0000
  Ge     Ge        0.644470140902234    0.659048011751017    0.703223238872990  0.0000
  Ge     Ge        0.826979816023049    0.705976324372786    0.701729508424414  0.0000
  Ge     Ge        0.663755024903192    0.255732422285836    0.708247843132631  0.0000
  Ge     Ge        0.171608134047227    0.714225178061647    0.261970631132531  0.0000
  Ge     Ge        0.328841489120067    0.247088839731412    0.261809321672435  0.0000
  Ge     Ge        0.663801408003895    0.263875579813136    0.020336007010646  0.0000
  Ge     Ge        0.830561103442917    0.707952063986233    0.013720299218893  0.0000
  Ge     Ge        0.324123687764722    0.246542217327693    0.950070124122171  0.0000
  Ge     Ge        0.162799549075957    0.706161280530770    0.949699268740013  0.0000
  Ge     Ge        0.346110780872770    0.652103248085866    0.943505747204972  0.0000
  Ge     Ge        0.141162045519361    0.304795215254116    0.954836053236662  0.0000
  Ge     Ge        0.646276401876520    0.665493266968140    0.015412688903951  0.0000
  Ge     Ge        0.848112036933586    0.302794776993965    0.020167485556868  0.0000
  Si     Si        0.549980899759020    0.969085076237542    0.595516079528271  0.0000
  Si     Si        0.549088848738218    0.978659179936861    0.087247753521957  0.0000
  Si     Si        0.943295844761463    0.992888566566236    0.127226234371922  0.0000
  Si     Si        0.044238694807889    0.990868547020972    0.883857333560192  0.0000
  O1     O1        0.084044488361012    0.203153725759912    0.358059169360571  0.0000
  O1     O1        0.415997343427886    0.764661802221205    0.349369682713412  0.0000
  O1     O1        0.906108757597567    0.187002651191919    0.612705040701659  0.0000
  O3     O3        0.579871514666640    0.778292961478894    0.615458477173815  0.0000
  O1     O1        0.876839751535262    0.839784615393600    0.605929407566433  0.0000
  O3     O3        0.616456330485445    0.102127773672113    0.622763616099489  0.0000
  O1     O1        0.125799741115643    0.862000754857716    0.351674077815832  0.0000
  O1     O1        0.379011127695278    0.110347729681200    0.358404563304359  0.0000
  O1     O1        0.020117142470865    0.965675656025407    0.525109084829324  0.0000
  O3     O3        0.524402024337302    0.994958099572579    0.448229767402417  0.0000
  O3     O3        0.975741035165240    0.963623775687390    0.269508498882286  0.0000
  O3     O3        0.482160521063732    0.002723388969263    0.185721037218266  0.0000
  O3     O3        0.976783669730363    0.961835617854557    0.784492255951867  0.0000
  O3     O3        0.477193748192382    0.000165895160262    0.683956875371039  0.0000
  O3     O3        0.614011068044640    0.119485864862659    0.109695451420637  0.0000
  O3     O3        0.876874271190285    0.858169827717488    0.104503722775957  0.0000
  O1     O1        0.368687962391603    0.102294465619401    0.855372256975911  0.0000
  O3     O3        0.110831205367759    0.853840710355501    0.863131741398560  0.0000
  O1     O1        0.408886584971027    0.762835442482377    0.851932210817704  0.0000
  O3     O3        0.078283661702512    0.178757378397118    0.868738833405181  0.0000
  O3     O3        0.586327298698261    0.792790701978617    0.103521392321269  0.0000
  O3     O3        0.910159130494316    0.182052334297739    0.112205872094105  0.0000
  O3     O3        0.517049742094763    0.004161671926315    0.942493901657803  0.0000
  O2     O2        0.012751808210975    0.964881270770157    0.028731172300928  0.0000
  O1     O1        0.159720107010356    0.513650826000864    0.325525989154865  0.0000
  O1     O1        0.342820150530198    0.452056317360121    0.315417339072640  0.0000
  O1     O1        0.837000069881097    0.501665526164137    0.645930548611257  0.0000
  O1     O1        0.650433331694981    0.456280203232652    0.644499702496372  0.0000
  O1     O1        0.233377680430158    0.206871970198025    0.266593995324762  0.0000
  O1     O1        0.266611212316067    0.757876496423474    0.258297106326000  0.0000
  O1     O1        0.758288810581309    0.205902065285304    0.708815158561199  0.0000
  O1     O1        0.731987301059336    0.753985196690316    0.700429002719890  0.0000
  O1     O1        0.113221228138205    0.320645518052366    0.111634118933277  0.0000
  O1     O1        0.380593032805754    0.648650384943789    0.099125842687479  0.0000
  O1     O1        0.878412846578631    0.306158319078145    0.864107665381375  0.0000
  O1     O1        0.613517362360732    0.654908747977944    0.859079387428095  0.0000
  O1     O1        0.860485103184520    0.710852041820315    0.858061204949699  0.0000
  O1     O1        0.632678581624095    0.264479147478293    0.863175167756491  0.0000
  O1     O1        0.136454732574677    0.710338255708437    0.107517469095786  0.0000
  O1     O1        0.358520841923244    0.235715135195887    0.105115221910645  0.0000
  O1     O1        0.650484725240809    0.465836571260533    0.079888694384778  0.0000
  O1     O1        0.845228637043823    0.507537881305239    0.075904917973761  0.0000
  O1     O1        0.337237631784031    0.448052352513052    0.890014425127670  0.0000
  O1     O1        0.145930213706867    0.504629692129574    0.890662451224131  0.0000
  O1     O1        0.758759220631264    0.216628894069050    0.024986364767506  0.0000
  O1     O1        0.735318740426473    0.752838601057014    0.014012548857414  0.0000
  O1     O1        0.228495693700033    0.207803548458957    0.953270248095358  0.0000
  O1     O1        0.257933613639233    0.748102795631934    0.939855880810610  0.0000
