data_c01203.vasp
_audit_creation_method             Generated by GULP
_audit_author_name                 Salvador R. G. Balestra
_symmetry_space_group_name_H-M     'P 1             '
_symmetry_Int_Tables_number        1

loop_
_symmetry_equiv_pos_site_id
_symmetry_equiv_pos_as_xyz
_cell_length_a                       17.5638
_cell_length_b                        7.8146
_cell_length_c                       10.1532
_cell_angle_alpha                   89.6210
_cell_angle_beta                    90.4707
_cell_angle_gamma                   91.6383

loop_
_atom_site_label
_atom_site_type_symbol
_atom_site_fract_x
_atom_site_fract_y
_atom_site_fract_z
_atom_site_charge
  Ge     Ge        0.052090000000021    0.000000000000000    0.372269999999958  0.0000
  Ge     Ge        0.454112339480020    0.057847925320424    0.380169838892511  0.0000
  Ge     Ge        0.940303425747165    0.061355072934893    0.613180233424955  0.0000
  Ge     Ge        0.950495133785028    0.065939590256151    0.115554926546311  0.0000
  Ge     Ge        0.447774754054086    0.063729736859179    0.862815810148339  0.0000
  Ge     Ge        0.052316414096542    0.003869436762930    0.860872734762364  0.0000
  Ge     Ge        0.176487029051367    0.284018624871587    0.298411507327784  0.0000
  Ge     Ge        0.329712104216275    0.775181621408374    0.299323299123681  0.0000
  Ge     Ge        0.845440311078064    0.374290708721296    0.728502922683473  0.0000
  Ge     Ge        0.823827971997634    0.771431045314548    0.733853812474660  0.0000
  Ge     Ge        0.149713475793613    0.687049643299967    0.303929599859105  0.0000
  Ge     Ge        0.357073455601410    0.370081519364416    0.298565027965440  0.0000
  Ge     Ge        0.666164381390015    0.295289831057320    0.049078854411532  0.0000
  Ge     Ge        0.825039750913493    0.777059404608712    0.049923376681225  0.0000
  Ge     Ge        0.356432535251581    0.375326805548654    0.979166104942346  0.0000
  Ge     Ge        0.144870362640726    0.690479650429118    0.983350502111793  0.0000
  Ge     Ge        0.325819637692916    0.779832742017992    0.979201499912119  0.0000
  Ge     Ge        0.175094727628759    0.287469677855611    0.978699365800145  0.0000
  Ge     Ge        0.643883266624921    0.702142704751963    0.051106457698634  0.0000
  Ge     Ge        0.846038675390267    0.372036373973917    0.054175901232772  0.0000
  Si     Si        0.558255745477820    0.013565958796682    0.624820840007489  0.0000
  Si     Si        0.547220064574380    0.004917280679211    0.120173895560304  0.0000
  Si     Si        0.642752159975098    0.700738642123977    0.744535718169993  0.0000
  Si     Si        0.665205277952876    0.311725864160431    0.734713404402658  0.0000
  O1     O1        0.126154962029730    0.145074289474212    0.397929592618388  0.0000
  O1     O1        0.380617738338754    0.911235498710274    0.400408493671558  0.0000
  O1     O1        0.911398978827157    0.264987676777112    0.643112312550857  0.0000
  O2     O2        0.591276694195744    0.825883807089558    0.655311201292502  0.0000
  O1     O1        0.861354789356501    0.931646396840558    0.638431257195646  0.0000
  O2     O2        0.619236884492468    0.168763260606950    0.649779198119932  0.0000
  O1     O1        0.085053722187316    0.797492689356185    0.394637404583310  0.0000
  O1     O1        0.420620031894871    0.259733539491961    0.394369659928425  0.0000
  O1     O1        0.970280422063941    0.044083064381825    0.452889338534620  0.0000
  O3     O3        0.534230236990979    0.018305418848291    0.472530157243428  0.0000
  O1     O1        0.028473797294740    0.021760780566586    0.206507751561463  0.0000
  O3     O3        0.478143767044067    0.036576650380197    0.214636582551181  0.0000
  O1     O1        0.020117217747115    0.005749421342935    0.700096867249193  0.0000
  O3     O3        0.481158546406778    0.043684826074438    0.703836181112678  0.0000
  O3     O3        0.613398457663209    0.150699119679726    0.140155850444550  0.0000
  O1     O1        0.877699343433187    0.917271634785817    0.142554300425813  0.0000
  O1     O1        0.421385492803090    0.270540282192139    0.886894205868274  0.0000
  O1     O1        0.076253150786350    0.797361036974465    0.898551019499205  0.0000
  O1     O1        0.369650741994678    0.929805506826396    0.880781608925489  0.0000
  O1     O1        0.130252481824466    0.139227423847876    0.879906714630584  0.0000
  O3     O3        0.581572706220292    0.817845087536679    0.143525209876766  0.0000
  O1     O1        0.913268324434707    0.264796678324092    0.141265377671792  0.0000
  O3     O3        0.520520238969475    0.010859481189615    0.968271241623423  0.0000
  O1     O1        0.977184038184149    0.068169107596801    0.952263767313412  0.0000
  O1     O1        0.163890621798218    0.486216134828685    0.362598244743706  0.0000
  O1     O1        0.342382107069803    0.569366842583335    0.357560344880463  0.0000
  O1     O1        0.844449191267558    0.578431133291884    0.666080406551683  0.0000
  O2     O2        0.646665512981022    0.506763306720320    0.685209294154828  0.0000
  O1     O1        0.272402144811278    0.250560063190183    0.296646081679485  0.0000
  O1     O1        0.233541752605987    0.808466407805560    0.302623884972546  0.0000
  O3     O3        0.754209598761768    0.280969827296006    0.719444469313561  0.0000
  O3     O3        0.726581899851263    0.784644978786938    0.751282602611948  0.0000
  O1     O1        0.143074980567893    0.271384900282833    0.138332478766200  0.0000
  O1     O1        0.359276427886980    0.793423156095014    0.138524659095841  0.0000
  O1     O1        0.871024608045847    0.388447896268283    0.890589848581526  0.0000
  O3     O3        0.609474498291979    0.687062778469270    0.889751025095943  0.0000
  O1     O1        0.859568461606814    0.790577178227232    0.891112598279666  0.0000
  O3     O3        0.638871644779761    0.291233725071411    0.884394670205012  0.0000
  O1     O1        0.117379987399759    0.666628026443469    0.144354863358945  0.0000
  O1     O1        0.388671080855650    0.389121312752829    0.139268618335351  0.0000
  O1     O1        0.652031736417564    0.498559388608926    0.108956797310763  0.0000
  O1     O1        0.835362953093686    0.572998482319513    0.112840529360644  0.0000
  O1     O1        0.342159892313300    0.577401623643291    0.920369842947264  0.0000
  O1     O1        0.157129146180083    0.490576460867393    0.920065313143992  0.0000
  O1     O1        0.760879514060751    0.255633290606444    0.060410259356215  0.0000
  O1     O1        0.729428094844889    0.813848334189986    0.051845157813769  0.0000
  O1     O1        0.271433564105235    0.259387613501224    0.978932105944069  0.0000
  O1     O1        0.229311688684963    0.808047489999876    0.978951649758645  0.0000
