data_c01284.vasp
_audit_creation_method             Generated by GULP
_audit_author_name                 Salvador R. G. Balestra
_symmetry_space_group_name_H-M     'P 1             '
_symmetry_Int_Tables_number        1

loop_
_symmetry_equiv_pos_site_id
_symmetry_equiv_pos_as_xyz
_cell_length_a                       17.6800
_cell_length_b                        7.8857
_cell_length_c                       10.3189
_cell_angle_alpha                   90.3510
_cell_angle_beta                    90.5519
_cell_angle_gamma                   89.3525

loop_
_atom_site_label
_atom_site_type_symbol
_atom_site_fract_x
_atom_site_fract_y
_atom_site_fract_z
_atom_site_charge
  Ge     Ge        0.052090000000021    0.000000000000000    0.372269999999958  0.0000
  Ge     Ge        0.452804642327908    0.955884221460385    0.377598069598697  0.0000
  Ge     Ge        0.561787277987212    0.980268721285702    0.129201979572382  0.0000
  Ge     Ge        0.451873873774284    0.962824056742803    0.877939491341513  0.0000
  Ge     Ge        0.048563876206687    0.994076728220757    0.873038932880582  0.0000
  Ge     Ge        0.149805230844116    0.309209235718036    0.264880626823495  0.0000
  Ge     Ge        0.353953340361352    0.646875422641172    0.266544510085850  0.0000
  Ge     Ge        0.848782493446822    0.292131401544367    0.699751321794240  0.0000
  Ge     Ge        0.655398002452605    0.668440819941327    0.700292185142136  0.0000
  Ge     Ge        0.837972990290627    0.696934369666977    0.694183062338380  0.0000
  Ge     Ge        0.665022941725114    0.261684733925719    0.704227469455311  0.0000
  Ge     Ge        0.173061246020436    0.713424829860588    0.263930902525204  0.0000
  Ge     Ge        0.330512296799253    0.242428186992620    0.262600316223466  0.0000
  Ge     Ge        0.671555770232494    0.273653655619288    0.016055169441067  0.0000
  Ge     Ge        0.837582798927392    0.707037635656923    0.007826029225820  0.0000
  Ge     Ge        0.329305292269648    0.245297727500861    0.946853583079394  0.0000
  Ge     Ge        0.171478619176136    0.712480016825596    0.948736700166002  0.0000
  Ge     Ge        0.352555192085552    0.648804045468048    0.950656178022128  0.0000
  Ge     Ge        0.148485093077454    0.308713040757781    0.948705103015370  0.0000
  Ge     Ge        0.854738618110666    0.304166885231713    0.014327202941969  0.0000
  Si     Si        0.947030073770849    0.983526246173522    0.618862243064639  0.0000
  Si     Si        0.553518140287257    0.975027149451417    0.629069399611889  0.0000
  Si     Si        0.947344601657903    0.991634302744072    0.123521649429553  0.0000
  Si     Si        0.658822534604252    0.672291863720877    0.006978761071492  0.0000
  O1     O1        0.085439662348468    0.200671782352032    0.354717779520970  0.0000
  O1     O1        0.419053124001602    0.754791702128421    0.357742254171582  0.0000
  O3     O3        0.904071855953940    0.162778507314561    0.602295466325073  0.0000
  O3     O3        0.594744848874486    0.793552392268969    0.609524239215187  0.0000
  O3     O3        0.888783441118877    0.830665312290571    0.596418113260798  0.0000
  O3     O3        0.613249652226778    0.124683117865397    0.607911212661498  0.0000
  O1     O1        0.124837531648924    0.857586740749351    0.356608168668489  0.0000
  O1     O1        0.380417054334236    0.097811403056197    0.351887514922893  0.0000
  O3     O3        0.018941890937588    0.972953532408988    0.528099068536374  0.0000
  O3     O3        0.480917198725533    0.987693471022578    0.537889150361816  0.0000
  O3     O3        0.976690995622303    0.963189254526157    0.268765817773989  0.0000
  O1     O1        0.531575663604885    0.984768514330456    0.286252774805867  0.0000
  O3     O3        0.974494495814427    0.965966117373587    0.768163549095190  0.0000
  O3     O3        0.527290533118627    0.991789157756968    0.778100824653490  0.0000
  O1     O1        0.623045298027757    0.146309834000297    0.117378489806655  0.0000
  O3     O3        0.878388576730393    0.864327384954544    0.098418533156595  0.0000
  O1     O1        0.379186143517390    0.106754705194934    0.852572299990196  0.0000
  O1     O1        0.121426407778519    0.850346135219864    0.853178454440220  0.0000
  O1     O1        0.415786211728002    0.762626143358575    0.862643090332966  0.0000
  O1     O1        0.083954070267242    0.194471153253082    0.860429959618313  0.0000
  O3     O3        0.604863817397587    0.787319902657714    0.094244146449648  0.0000
  O3     O3        0.917907312791374    0.183806293685449    0.103781343842150  0.0000
  O1     O1        0.483025150733698    0.001853701650223    0.033704457360179  0.0000
  O3     O3        0.016365771085190    0.952967251703120    0.027952878038539  0.0000
  O1     O1        0.160110270545478    0.511226039081762    0.322527730847116  0.0000
  O1     O1        0.343865289312818    0.444964661968091    0.322606582696392  0.0000
  O1     O1        0.845960632808904    0.492314233184395    0.636760078194422  0.0000
  O1     O1        0.655228668360323    0.464185150240918    0.644245004251094  0.0000
  O1     O1        0.235386806769417    0.202299280188928    0.267732478970720  0.0000
  O1     O1        0.268204622576890    0.752965137655443    0.268910505727952  0.0000
  O1     O1        0.759370101815001    0.209310825605803    0.704554573774125  0.0000
  O1     O1        0.743988060075690    0.753076302536681    0.691466834978636  0.0000
  O1     O1        0.118753650705730    0.316447125583438    0.106790569699784  0.0000
  O1     O1        0.384286931997318    0.640929919960609    0.108654540183958  0.0000
  O1     O1        0.883895257414280    0.301580860466896    0.855570937305496  0.0000
  O3     O3        0.626265464277517    0.663741655986478    0.860657460266821  0.0000
  O1     O1        0.870046932989624    0.702510571997086    0.852002077428120  0.0000
  O1     O1        0.635309671175529    0.254029728169042    0.862161625768684  0.0000
  O1     O1        0.141277541225265    0.722121410631602    0.106697287347370  0.0000
  O1     O1        0.360579705760859    0.236956440298534    0.105273299140873  0.0000
  O3     O3        0.664502171087166    0.484566407367986    0.065288814725460  0.0000
  O1     O1        0.854240342585583    0.509194207418488    0.071781511942295  0.0000
  O1     O1        0.341879179507306    0.448763965368382    0.890266481238183  0.0000
  O1     O1        0.157930018676400    0.508958688787398    0.890387978518027  0.0000
  O1     O1        0.765765524148466    0.221041791354362    0.018639970997862  0.0000
  O3     O3        0.741864200146039    0.752812517318124    0.001250782685890  0.0000
  O1     O1        0.234404627511487    0.203306999513623    0.944925950418743  0.0000
  O1     O1        0.266370648299211    0.753917421577945    0.948478611941734  0.0000
