data_c01221.vasp
_audit_creation_method             Generated by GULP
_audit_author_name                 Salvador R. G. Balestra
_symmetry_space_group_name_H-M     'P 1             '
_symmetry_Int_Tables_number        1

loop_
_symmetry_equiv_pos_site_id
_symmetry_equiv_pos_as_xyz
_cell_length_a                       17.6254
_cell_length_b                        7.8938
_cell_length_c                       10.4359
_cell_angle_alpha                   90.2238
_cell_angle_beta                    90.0089
_cell_angle_gamma                   90.2805

loop_
_atom_site_label
_atom_site_type_symbol
_atom_site_fract_x
_atom_site_fract_y
_atom_site_fract_z
_atom_site_charge
  Ge     Ge        0.052090000000021    0.000000000000000    0.372269999999958  0.0000
  Ge     Ge        0.450555533808295    0.027903576125325    0.403860358719764  0.0000
  Ge     Ge        0.948937338780668    0.998299977215148    0.627626847926874  0.0000
  Ge     Ge        0.950038178652262    0.001929330058647    0.115779739272058  0.0000
  Ge     Ge        0.060979146538757    0.999314051236372    0.869048780854206  0.0000
  Ge     Ge        0.172988718669198    0.281921590273189    0.295041063684667  0.0000
  Ge     Ge        0.332561015271737    0.741684643830868    0.291597635537360  0.0000
  Ge     Ge        0.828272493590133    0.283003179747618    0.741552483642480  0.0000
  Ge     Ge        0.665484262423270    0.734665503467645    0.735001829461527  0.0000
  Ge     Ge        0.848211699978664    0.686238093240120    0.737195943445505  0.0000
  Ge     Ge        0.645385126933737    0.331692458033352    0.739376603644873  0.0000
  Ge     Ge        0.150397041989472    0.687554490556637    0.288773411391401  0.0000
  Ge     Ge        0.354107586714812    0.337696685510545    0.299979144335503  0.0000
  Ge     Ge        0.644435763498175    0.335079146786545    0.049845695451928  0.0000
  Ge     Ge        0.848103350931704    0.685537874839626    0.050194984463000  0.0000
  Ge     Ge        0.354612608896345    0.323535530633784    0.989137173887391  0.0000
  Ge     Ge        0.154521146206732    0.681204335852188    0.980405740923146  0.0000
  Ge     Ge        0.339625798197724    0.724149379041247    0.982126598540713  0.0000
  Ge     Ge        0.665835060649802    0.738440390108151    0.046438393805241  0.0000
  Ge     Ge        0.827293124631040    0.284130846607650    0.051622215610033  0.0000
  Si     Si        0.551222592394945    0.018870718141904    0.657419734163827  0.0000
  Si     Si        0.553308094804991    0.022524105409869    0.152771041584389  0.0000
  Si     Si        0.451510757928638    0.012203426499068    0.906154351416618  0.0000
  Si     Si        0.173572768534218    0.282953617652826    0.991095329557929  0.0000
  O1     O1        0.122397586779631    0.150170514047681    0.391867945355943  0.0000
  O1     O1        0.376602548234966    0.889179497232315    0.385074209610552  0.0000
  O1     O1        0.877297062431606    0.139740777279121    0.651836335479814  0.0000
  O3     O3        0.616167837356262    0.878223878807387    0.643003989141685  0.0000
  O1     O1        0.914553484712902    0.797524909410170    0.652418993351872  0.0000
  O3     O3        0.586956264741310    0.205235221907341    0.645000037011450  0.0000
  O1     O1        0.090522709161490    0.801359118738891    0.384891107855482  0.0000
  O1     O1        0.417898044994391    0.230228161714576    0.392682451250472  0.0000
  O1     O1        0.975967654122094    0.020813293719505    0.469856781823484  0.0000
  O3     O3        0.486200337853351    0.990384151575055    0.554653749587938  0.0000
  O1     O1        0.024138287241436    0.033066811627086    0.215777146507712  0.0000
  O3     O3        0.520343941649337    0.988479883129822    0.292197866248198  0.0000
  O1     O1        0.030427403513051    0.031694881046538    0.714974721081081  0.0000
  O2     O2        0.517176299907021    0.997891492672249    0.800996113389635  0.0000
  O3     O3        0.582339019155294    0.214899538775977    0.140335284130958  0.0000
  O1     O1        0.911141860851614    0.803321031354842    0.137215321871686  0.0000
  O3     O3        0.410741211688553    0.192807266719521    0.897042412866703  0.0000
  O1     O1        0.096793204822295    0.797469851615176    0.883509211867349  0.0000
  O3     O3        0.389289734922658    0.865714412974040    0.887873074446724  0.0000
  O3     O3        0.131731723928114    0.144565702267038    0.904333774918269  0.0000
  O3     O3        0.622025377667219    0.893204397572811    0.134738790779845  0.0000
  O1     O1        0.878172770502780    0.145811134002474    0.141124355474735  0.0000
  O2     O2        0.487913849849213    0.986612055081480    0.047001944957011  0.0000
  O1     O1        0.981397845680480    0.024476369585762    0.960540587058140  0.0000
  O1     O1        0.159162951148462    0.487325931420799    0.346265044083178  0.0000
  O1     O1        0.344135566003220    0.540692043555468    0.353436588666730  0.0000
  O1     O1        0.839889086953492    0.483394123928949    0.679627351605969  0.0000
  O1     O1        0.651864371503013    0.531378072952090    0.677084445223432  0.0000
  O1     O1        0.267385948974248    0.235921185966586    0.303714887755598  0.0000
  O1     O1        0.237795465254958    0.786030477933514    0.284394818094896  0.0000
  O1     O1        0.733065796290016    0.237553305939664    0.743373888704658  0.0000
  O1     O1        0.760529306689782    0.782081009282408    0.729987703176619  0.0000
  O3     O3        0.142821226638420    0.275794955588165    0.136079855320188  0.0000
  O1     O1        0.368534928444128    0.737391520095681    0.138711938490552  0.0000
  O1     O1        0.860499489879832    0.278956413232452    0.896479302621242  0.0000
  O1     O1        0.634891383509947    0.736539297319952    0.890919370639502  0.0000
  O1     O1        0.878320788941282    0.677704118154228    0.893385310950811  0.0000
  O1     O1        0.612618084347436    0.342334608769538    0.894344766045811  0.0000
  O1     O1        0.117874844988032    0.691467022616822    0.132686233298401  0.0000
  O1     O1        0.386426862755415    0.331507879838934    0.144074727404799  0.0000
  O1     O1        0.650177518126307    0.538312520246999    0.108064892717985  0.0000
  O1     O1        0.839569738960922    0.486551795997821    0.111399692756899  0.0000
  O1     O1        0.355873902982556    0.522375596562008    0.925534700018885  0.0000
  O3     O3        0.159519538056317    0.469990897701470    0.934136096555835  0.0000
  O1     O1        0.732012367297114    0.240752756773761    0.051788760806850  0.0000
  O1     O1        0.760828767274277    0.782622906814791    0.048287723262068  0.0000
  O3     O3        0.262937264612127    0.244552712770363    0.993875807619951  0.0000
  O1     O1        0.244494143326927    0.765095187735096    0.975822960662760  0.0000
