data_c01269.vasp
_audit_creation_method             Generated by GULP
_audit_author_name                 Salvador R. G. Balestra
_symmetry_space_group_name_H-M     'P 1             '
_symmetry_Int_Tables_number        1

loop_
_symmetry_equiv_pos_site_id
_symmetry_equiv_pos_as_xyz
_cell_length_a                       17.5741
_cell_length_b                        7.8100
_cell_length_c                       10.1206
_cell_angle_alpha                   90.1552
_cell_angle_beta                    90.1187
_cell_angle_gamma                   91.0297

loop_
_atom_site_label
_atom_site_type_symbol
_atom_site_fract_x
_atom_site_fract_y
_atom_site_fract_z
_atom_site_charge
  Ge     Ge        0.052090000000021    0.000000000000000    0.372269999999958  0.0000
  Ge     Ge        0.444377032845340    0.046133089882824    0.373719464131315  0.0000
  Ge     Ge        0.547398804779439    0.996974904258711    0.115926450134596  0.0000
  Ge     Ge        0.941564743015134    0.054251702353417    0.123322431951254  0.0000
  Ge     Ge        0.444599249264753    0.057972930461962    0.861815288737157  0.0000
  Ge     Ge        0.043802778009631    0.989955174591590    0.864598840382251  0.0000
  Ge     Ge        0.169725164886391    0.291588229631155    0.262283601171369  0.0000
  Ge     Ge        0.322163651590262    0.766631878260330    0.259075381841302  0.0000
  Ge     Ge        0.848113392636152    0.356100720782784    0.679413954420659  0.0000
  Ge     Ge        0.826617373977023    0.757147037964518    0.682968435094519  0.0000
  Ge     Ge        0.664103346806253    0.293077146334816    0.683864435954903  0.0000
  Ge     Ge        0.352428790998574    0.365128280326697    0.258227937559091  0.0000
  Ge     Ge        0.668253955352877    0.282227000764941    0.003408930393603  0.0000
  Ge     Ge        0.819494692512405    0.770468332282048    0.005519110055379  0.0000
  Ge     Ge        0.345813311703222    0.365601642349311    0.936675282799367  0.0000
  Ge     Ge        0.144072642421559    0.682654374612589    0.938181704396051  0.0000
  Ge     Ge        0.321751076210396    0.771483866652431    0.939441274348893  0.0000
  Ge     Ge        0.167236654953831    0.274926118730063    0.944581631819724  0.0000
  Ge     Ge        0.641193995902438    0.684487868120927    0.995124846273326  0.0000
  Ge     Ge        0.848721669479226    0.365705430683789    0.000758467235088  0.0000
  Si     Si        0.943356085856179    0.043104273875541    0.613717491141511  0.0000
  Si     Si        0.551104044474623    0.997194933479838    0.620761794543353  0.0000
  Si     Si        0.648236033304574    0.685477949820582    0.679300193934992  0.0000
  Si     Si        0.144149354031211    0.689042401098920    0.252270177211265  0.0000
  O1     O1        0.123343265394450    0.151103128237698    0.364966424551003  0.0000
  O1     O1        0.363687362959531    0.921942706695817    0.354799490144385  0.0000
  O3     O3        0.910598624261085    0.231166476375161    0.589775230937553  0.0000
  O2     O2        0.588953822267076    0.809780610896627    0.604529575044238  0.0000
  O3     O3        0.875340798153470    0.905725474863925    0.588243484375733  0.0000
  O3     O3        0.612255785157995    0.146859144673164    0.588595780115208  0.0000
  O3     O3        0.083701036211351    0.797285293339361    0.334789604074554  0.0000
  O1     O1        0.419799582626037    0.254223018057567    0.344199374926692  0.0000
  O3     O3        0.019043173986147    0.000790442016317    0.534855182872049  0.0000
  O3     O3        0.475659423646713    0.019000956283716    0.535364995371153  0.0000
  O1     O1        0.972942346936154    0.049927005160175    0.283567418907547  0.0000
  O1     O1        0.518782654548544    0.984222079361027    0.277494032977699  0.0000
  O3     O3        0.965769001111998    0.030797229651003    0.769273362665426  0.0000
  O3     O3        0.524955098031647    0.014029501253971    0.773132960399986  0.0000
  O1     O1        0.624611666204280    0.133114355125604    0.101727540036631  0.0000
  O1     O1        0.864143299133545    0.919426737454922    0.102463140662436  0.0000
  O1     O1        0.407082133345529    0.256798950979117    0.836574562020844  0.0000
  O1     O1        0.078649947510222    0.787116770377750    0.844661678817041  0.0000
  O1     O1        0.373993539030869    0.905368464464591    0.841024733877280  0.0000
  O1     O1        0.116187050141135    0.139018931809231    0.845056120367491  0.0000
  O1     O1        0.568449756189574    0.792129410175863    0.064802330408075  0.0000
  O1     O1        0.916351166132725    0.261046669745870    0.088268264185605  0.0000
  O1     O1        0.471945922444915    0.066513112352448    0.025651033088557  0.0000
  O1     O1        0.016036663545124    0.993739970829775    0.027388150496852  0.0000
  O3     O3        0.155295862341127    0.501685258782489    0.313814325718249  0.0000
  O1     O1        0.343066925703495    0.568462330056108    0.320724068611066  0.0000
  O1     O1        0.844074986437755    0.558817671641154    0.616777081337300  0.0000
  O3     O3        0.652215110343844    0.497279031923852    0.615810071361113  0.0000
  O1     O1        0.265685555860159    0.258460660850611    0.265349570703513  0.0000
  O3     O3        0.224471242841980    0.792371451227196    0.253584085622704  0.0000
  O1     O1        0.759824697385083    0.256359459241820    0.677808960711790  0.0000
  O3     O3        0.729059596715260    0.784983580709333    0.677191122808341  0.0000
  O1     O1        0.135016476200342    0.258660646956804    0.105260527826533  0.0000
  O1     O1        0.354884000534050    0.787552396651942    0.099524249863401  0.0000
  O1     O1        0.878147867848837    0.382872122795805    0.839331425763152  0.0000
  O3     O3        0.623445717639012    0.647252145111521    0.828872585791167  0.0000
  O1     O1        0.853079276200910    0.777156294246813    0.845530036897627  0.0000
  O1     O1        0.634025093773904    0.269629101872136    0.843734533594790  0.0000
  O3     O3        0.115880344410706    0.664042680001298    0.102587732207692  0.0000
  O1     O1        0.378979178408945    0.387656802771413    0.096242105041545  0.0000
  O1     O1        0.651505290517421    0.485751578199407    0.062869136408022  0.0000
  O1     O1        0.834500033671662    0.566150645229060    0.063479329430166  0.0000
  O1     O1        0.330314814397445    0.565542040214438    0.878407196424039  0.0000
  O1     O1        0.156434485006795    0.479964218425038    0.883190686222049  0.0000
  O1     O1        0.764344560776872    0.249864464219784    0.001292815719519  0.0000
  O1     O1        0.723451450316454    0.805440388915608    0.008897487594430  0.0000
  O1     O1        0.263237482120819    0.241548441113228    0.945318308965926  0.0000
  O1     O1        0.225933015398871    0.808124409817474    0.936085010804155  0.0000
