data_c01248.vasp
_audit_creation_method             Generated by GULP
_audit_author_name                 Salvador R. G. Balestra
_symmetry_space_group_name_H-M     'P 1             '
_symmetry_Int_Tables_number        1

loop_
_symmetry_equiv_pos_site_id
_symmetry_equiv_pos_as_xyz
_cell_length_a                       17.6808
_cell_length_b                        7.8703
_cell_length_c                       10.3123
_cell_angle_alpha                   89.1474
_cell_angle_beta                    90.3690
_cell_angle_gamma                   89.7208

loop_
_atom_site_label
_atom_site_type_symbol
_atom_site_fract_x
_atom_site_fract_y
_atom_site_fract_z
_atom_site_charge
  Ge     Ge        0.052090000000021    0.000000000000000    0.372269999999958  0.0000
  Ge     Ge        0.447335648309698    0.026738300574284    0.376262904213237  0.0000
  Ge     Ge        0.559916976243942    0.028031543453049    0.131326000894913  0.0000
  Ge     Ge        0.946196730421081    0.009737086526898    0.118433813598587  0.0000
  Ge     Ge        0.454218529987926    0.033998270573361    0.874932228004989  0.0000
  Ge     Ge        0.052460420518601    0.013086407600131    0.866604145439132  0.0000
  Ge     Ge        0.172285062024021    0.282700854099927    0.257584438354705  0.0000
  Ge     Ge        0.331959000442754    0.737189876258137    0.265562014035166  0.0000
  Ge     Ge        0.834375518592219    0.302643537568634    0.692473887593325  0.0000
  Ge     Ge        0.666450582818028    0.748879920989826    0.697041444481310  0.0000
  Ge     Ge        0.850468764144968    0.707859452737071    0.693541797549082  0.0000
  Ge     Ge        0.651885561808046    0.342388300274641    0.695355724451942  0.0000
  Ge     Ge        0.149635425396413    0.686630101192893    0.264709854495688  0.0000
  Ge     Ge        0.653860639768916    0.344063783570679    0.010338045469457  0.0000
  Ge     Ge        0.856458077889269    0.689590697065095    0.004770657535258  0.0000
  Ge     Ge        0.352768534254042    0.347239235568385    0.949763573014869  0.0000
  Ge     Ge        0.152468656336251    0.697494756197966    0.948291313800260  0.0000
  Ge     Ge        0.332920579886687    0.756038216345857    0.952075070827332  0.0000
  Ge     Ge        0.173229091577845    0.290939609854322    0.942148275255440  0.0000
  Ge     Ge        0.674078028590622    0.746004903086784    0.010254803135626  0.0000
  Si     Si        0.947829259880161    0.017396687500494    0.618345045121656  0.0000
  Si     Si        0.553231029821101    0.036421924565395    0.622195549292232  0.0000
  Si     Si        0.350172881889221    0.336337100442111    0.257867686752811  0.0000
  Si     Si        0.832813183643347    0.294674528361975    0.000428091369090  0.0000
  O1     O1        0.127831781699370    0.131932759098664    0.348805874769042  0.0000
  O1     O1        0.382937415499994    0.866190329934927    0.365268919187024  0.0000
  O3     O3        0.886768803615879    0.167756349173960    0.597370175460766  0.0000
  O3     O3        0.615096712953048    0.888989138857912    0.599524969816861  0.0000
  O3     O3        0.907350330142796    0.837242939982312    0.598107768846078  0.0000
  O3     O3        0.591886415939067    0.219274210548730    0.602740674588987  0.0000
  O1     O1        0.084321673413905    0.796498521053634    0.352762894870161  0.0000
  O3     O3        0.407471016724340    0.223641588013985    0.343656373580436  0.0000
  O3     O3        0.020914864449011    0.031626857022320    0.529426389435981  0.0000
  O3     O3        0.478499160770672    0.022562123348815    0.536368078917944  0.0000
  O1     O1        0.975653085291702    0.042460525949511    0.274509648517117  0.0000
  O1     O1        0.526838097852935    0.000395282973918    0.285767305636000  0.0000
  O3     O3        0.975174138608941    0.035906772916619    0.767266438387339  0.0000
  O3     O3        0.528889477210418    0.012070444104108    0.772354885711350  0.0000
  O1     O1        0.594025053793076    0.229890247679021    0.105451491610262  0.0000
  O1     O1        0.916128962163047    0.803285401347442    0.100397339823395  0.0000
  O1     O1        0.418779161320589    0.237557569476088    0.864615198858568  0.0000
  O1     O1        0.090954843810283    0.813607482342657    0.853650122006174  0.0000
  O1     O1        0.381727956150324    0.891442102002262    0.853331933086675  0.0000
  O1     O1        0.122294544032180    0.161941913168645    0.843219788968311  0.0000
  O1     O1        0.633947636232538    0.890343924142577    0.109526384309167  0.0000
  O3     O3        0.873049459149613    0.150162337195763    0.085791442266631  0.0000
  O1     O1        0.486180308819780    0.987307588359829    0.029044947272186  0.0000
  O1     O1        0.022879563975650    0.045387638136343    0.022851752531921  0.0000
  O1     O1        0.155123271253371    0.480459239856608    0.319624421015201  0.0000
  O3     O3        0.342125490094469    0.524783032636836    0.313318842137047  0.0000
  O1     O1        0.846077934910805    0.506570771439648    0.633682744226082  0.0000
  O1     O1        0.655026909787705    0.546991649525223    0.637679431806242  0.0000
  O3     O3        0.268920906179092    0.244676511890358    0.256649309224752  0.0000
  O1     O1        0.237150297859672    0.781579590260660    0.273651690502269  0.0000
  O1     O1        0.740640524458352    0.252075305741295    0.686663466598620  0.0000
  O1     O1        0.761224700449640    0.795384602583058    0.695674737451837  0.0000
  O1     O1        0.141748347700754    0.277174729416418    0.099742775702942  0.0000
  O1     O1        0.363997578790464    0.766196643520349    0.110746555354136  0.0000
  O3     O3        0.863457336926309    0.297275606023119    0.853625125636597  0.0000
  O1     O1        0.637112868282932    0.754083603159085    0.855465627706768  0.0000
  O1     O1        0.888178664850675    0.698223018748525    0.847606392482742  0.0000
  O1     O1        0.620868481926053    0.344878136208022    0.852868664948189  0.0000
  O1     O1        0.120183384592265    0.688038245383852    0.105365898845068  0.0000
  O3     O3        0.381118245102825    0.347527354066338    0.111729030200476  0.0000
  O1     O1        0.658579146728687    0.544009093952656    0.070460025556297  0.0000
  O3     O3        0.849148637960111    0.480650452361441    0.058799041376747  0.0000
  O1     O1        0.344745173555563    0.551770387855422    0.896065292755230  0.0000
  O1     O1        0.163156601339160    0.498496396712476    0.888388234187495  0.0000
  O3     O3        0.743891137360831    0.257016075447887    0.000127764083044  0.0000
  O1     O1        0.768992301930311    0.783243624000802    0.003226824311807  0.0000
  O1     O1        0.267887777831505    0.242741447181208    0.938795559503048  0.0000
  O1     O1        0.238108850182770    0.801186137102338    0.952072552215510  0.0000
