data_c01259.vasp
_audit_creation_method             Generated by GULP
_audit_author_name                 Salvador R. G. Balestra
_symmetry_space_group_name_H-M     'P 1             '
_symmetry_Int_Tables_number        1

loop_
_symmetry_equiv_pos_site_id
_symmetry_equiv_pos_as_xyz
_cell_length_a                       17.5315
_cell_length_b                        7.8390
_cell_length_c                       10.0461
_cell_angle_alpha                   90.7036
_cell_angle_beta                    90.8131
_cell_angle_gamma                   92.2036

loop_
_atom_site_label
_atom_site_type_symbol
_atom_site_fract_x
_atom_site_fract_y
_atom_site_fract_z
_atom_site_charge
  Ge     Ge        0.052090000000021    0.000000000000000    0.372269999999958  0.0000
  Ge     Ge        0.448310529105529    0.064907549166490    0.370322167836224  0.0000
  Ge     Ge        0.544838791899036    0.999305978695357    0.107206840886203  0.0000
  Ge     Ge        0.950948127330709    0.066584954514692    0.111999100875093  0.0000
  Ge     Ge        0.441577207938584    0.053065666562083    0.842182420005958  0.0000
  Ge     Ge        0.051002073593482    0.000631590466848    0.852463823851043  0.0000
  Ge     Ge        0.173382495386629    0.284566511211444    0.286321795523861  0.0000
  Ge     Ge        0.326196073858090    0.776827046975050    0.284801319660981  0.0000
  Ge     Ge        0.848220323534857    0.358606731572029    0.720671156558217  0.0000
  Ge     Ge        0.642635207280033    0.688093346271351    0.721132338323740  0.0000
  Ge     Ge        0.828001866917691    0.757256171099388    0.717947531776122  0.0000
  Ge     Ge        0.144931393864842    0.687866997462629    0.289873825453808  0.0000
  Ge     Ge        0.353498600540809    0.372874628061517    0.286869405501543  0.0000
  Ge     Ge        0.671705177529452    0.291051955513365    0.042279323957401  0.0000
  Ge     Ge        0.825970105472517    0.774876306704887    0.040097673535237  0.0000
  Ge     Ge        0.349512865322085    0.366780192437946    0.964179698558698  0.0000
  Ge     Ge        0.138898295493061    0.681370452371008    0.970461589714586  0.0000
  Ge     Ge        0.322579758900089    0.767380914529421    0.962923667085680  0.0000
  Ge     Ge        0.644481584329057    0.691041756281302    0.041765852951991  0.0000
  Ge     Ge        0.851284365833572    0.373894870911027    0.046974984428615  0.0000
  Si     Si        0.942095342558615    0.051003380078868    0.606379838868852  0.0000
  Si     Si        0.554697696698146    0.001568643405026    0.607946348968566  0.0000
  Si     Si        0.667315975350317    0.295580502334305    0.724130380076187  0.0000
  Si     Si        0.169086955873716    0.287259306210831    0.970653756206014  0.0000
  O1     O1        0.125960345979257    0.149257350035700    0.391172262023690  0.0000
  O1     O1        0.374950526615053    0.916242299828267    0.390460352112840  0.0000
  O3     O3        0.912404879222314    0.237980516600416    0.636640015197095  0.0000
  O3     O3        0.580855476994271    0.810413248564082    0.629265633767669  0.0000
  O3     O3        0.873895516110846    0.913453232203746    0.626350957000347  0.0000
  O2     O2        0.621672543779402    0.139224254878251    0.649277554957829  0.0000
  O1     O1        0.084942904325702    0.799262528946744    0.390843540450476  0.0000
  O1     O1        0.416624532966216    0.267385846163565    0.386403119363028  0.0000
  O3     O3        0.969437100309180    0.042552381585605    0.454084738704141  0.0000
  O3     O3        0.532258432561320    0.025164483351177    0.453644362224413  0.0000
  O1     O1        0.027991863189598    0.021852980544222    0.205278266157337  0.0000
  O1     O1        0.469801048597664    0.041776913418013    0.202950497261105  0.0000
  O3     O3        0.019216035876487    0.011587280749059    0.688359052909836  0.0000
  O3     O3        0.475398976163073    0.038890677550470    0.680900911077323  0.0000
  O1     O1        0.618934287827672    0.149157249180897    0.130452130652397  0.0000
  O1     O1        0.875699216653414    0.921795815335514    0.135332571742822  0.0000
  O1     O1        0.411221974239086    0.256309085164701    0.869622891222157  0.0000
  O1     O1        0.076546349565601    0.793033588964842    0.876003802460261  0.0000
  O1     O1        0.363816612252096    0.916833940976231    0.862041923889661  0.0000
  O3     O3        0.128840713604416    0.140219842191781    0.879681045054741  0.0000
  O1     O1        0.581215835878099    0.801493640199292    0.133804541702953  0.0000
  O1     O1        0.918116915814322    0.268729294010488    0.136157435464136  0.0000
  O1     O1        0.516434658727910    0.004020538155895    0.942368330267125  0.0000
  O1     O1        0.975636665439848    0.053594287957489    0.946280888699922  0.0000
  O1     O1        0.159861456861211    0.488917197681998    0.346628043402883  0.0000
  O1     O1        0.339883255701397    0.573632633799375    0.344270354663209  0.0000
  O1     O1        0.845658730958179    0.558413424472012    0.653639521057860  0.0000
  O3     O3        0.648829757927314    0.478395896285896    0.661525976160806  0.0000
  O1     O1        0.268915333772533    0.251235216993695    0.287231073246317  0.0000
  O1     O1        0.229930386524072    0.806713345785803    0.282776681839464  0.0000
  O3     O3        0.756986028788974    0.263733628413894    0.715059886889543  0.0000
  O1     O1        0.731616532611257    0.784474887410522    0.713529294812978  0.0000
  O3     O3        0.139687061675828    0.273966867776546    0.121988351260553  0.0000
  O1     O1        0.358285226258030    0.788494994020272    0.123342922383758  0.0000
  O1     O1        0.877468867836079    0.384635807921236    0.882219165197079  0.0000
  O1     O1        0.610257810662599    0.678306047848974    0.879496643634961  0.0000
  O1     O1        0.859913978317988    0.775304681949701    0.879398925640308  0.0000
  O3     O3        0.641803550090001    0.296866190487919    0.876596515713613  0.0000
  O1     O1        0.106938953880522    0.675243165734741    0.130805543742303  0.0000
  O1     O1        0.384209074387448    0.381617427138542    0.124999274408644  0.0000
  O1     O1        0.658108993478190    0.494372254133252    0.104706605049449  0.0000
  O1     O1        0.839032565586999    0.574602804135177    0.106157147774580  0.0000
  O1     O1        0.341682597074269    0.567128270631450    0.902332774934663  0.0000
  O3     O3        0.149153157636370    0.473068736466744    0.914488028559764  0.0000
  O1     O1        0.766643861677023    0.253094262806274    0.050221043855329  0.0000
  O1     O1        0.730143072055273    0.807299276928230    0.034751321666308  0.0000
  O3     O3        0.259705154850138    0.265441255417537    0.970433778497877  0.0000
  O1     O1        0.225999544118848    0.788201112152903    0.967377920929618  0.0000
