data_c01234.vasp
_audit_creation_method             Generated by GULP
_audit_author_name                 Salvador R. G. Balestra
_symmetry_space_group_name_H-M     'P 1             '
_symmetry_Int_Tables_number        1

loop_
_symmetry_equiv_pos_site_id
_symmetry_equiv_pos_as_xyz
_cell_length_a                       17.7398
_cell_length_b                        7.8655
_cell_length_c                       10.3538
_cell_angle_alpha                   90.7020
_cell_angle_beta                    90.8455
_cell_angle_gamma                   90.4336

loop_
_atom_site_label
_atom_site_type_symbol
_atom_site_fract_x
_atom_site_fract_y
_atom_site_fract_z
_atom_site_charge
  Ge     Ge        0.052090000000021    0.000000000000000    0.372269999999958  0.0000
  Ge     Ge        0.453118175142711    0.044170292078092    0.373554469765049  0.0000
  Ge     Ge        0.943191184637159    0.001742996407225    0.621148036744823  0.0000
  Ge     Ge        0.450798711877993    0.025351579598016    0.878541388183839  0.0000
  Ge     Ge        0.046506143011411    0.998639694614896    0.881648493030469  0.0000
  Ge     Ge        0.173767027447486    0.284435877705746    0.264749635524753  0.0000
  Ge     Ge        0.330098494466276    0.756930278452795    0.263951744670388  0.0000
  Ge     Ge        0.826756428669192    0.286963341778412    0.701437675316405  0.0000
  Ge     Ge        0.660948664738055    0.727865457747358    0.704956453976456  0.0000
  Ge     Ge        0.843381305008441    0.689458363471560    0.698099915843557  0.0000
  Ge     Ge        0.150557149433141    0.688852766169649    0.265697566371805  0.0000
  Ge     Ge        0.353408264466884    0.351574972587129    0.267984056601125  0.0000
  Ge     Ge        0.649960500857266    0.332034894252850    0.016848007613266  0.0000
  Ge     Ge        0.849146550274408    0.696770686374602    0.012951997762000  0.0000
  Ge     Ge        0.351770023848430    0.343005809309791    0.952161900894528  0.0000
  Ge     Ge        0.147598083291780    0.683548396405016    0.949979441248690  0.0000
  Ge     Ge        0.327645545568337    0.747243760609336    0.949023310965638  0.0000
  Ge     Ge        0.171670388894328    0.279831754893507    0.949556035811038  0.0000
  Ge     Ge        0.666459010536358    0.738090663717260    0.017103387547543  0.0000
  Ge     Ge        0.831520208797790    0.289327468162736    0.014693203541498  0.0000
  Si     Si        0.553343842337386    0.018742824157356    0.630317750780408  0.0000
  Si     Si        0.555436759976758    0.022221468802752    0.126782899090442  0.0000
  Si     Si        0.945076200572311    0.007811934418022    0.127867412312992  0.0000
  Si     Si        0.648720148684127    0.330171815806477    0.710545066992314  0.0000
  O1     O1        0.123694257208124    0.143415174423601    0.354439412705356  0.0000
  O1     O1        0.380111863202771    0.902830513791868    0.353793764688158  0.0000
  O1     O1        0.871943909909374    0.147972288664500    0.603040980805579  0.0000
  O3     O3        0.611019254982561    0.864776210748810    0.606545711347545  0.0000
  O1     O1        0.902483858059699    0.804524531969338    0.602999055418385  0.0000
  O2     O2        0.595287798696813    0.202916044633098    0.625314703205563  0.0000
  O1     O1        0.085816904588022    0.798439604173188    0.354355430201812  0.0000
  O1     O1        0.419620694591097    0.245578476152801    0.357413147849515  0.0000
  O1     O1        0.019376376925670    0.028212375103535    0.526737188030080  0.0000
  O3     O3        0.484987003793015    0.016006273996507    0.530466279065748  0.0000
  O3     O3        0.973335480402469    0.029421829465818    0.274702094392469  0.0000
  O3     O3        0.527944083524585    0.008261641353605    0.272710697872585  0.0000
  O1     O1        0.972857098688550    0.029638209404997    0.779837617788996  0.0000
  O3     O3        0.522441673426375    0.990002926317098    0.773719649538709  0.0000
  O3     O3        0.585103571291838    0.212262350787970    0.097692193103342  0.0000
  O3     O3        0.912929675773223    0.818278739629541    0.101166626288930  0.0000
  O1     O1        0.416173512684584    0.227176126766481    0.867134424193879  0.0000
  O1     O1        0.081854179198327    0.796716371258983    0.865050721117448  0.0000
  O1     O1        0.376928512203396    0.884880459124169    0.855773101415324  0.0000
  O1     O1        0.119994416984261    0.138883512935181    0.858279370599936  0.0000
  O3     O3        0.622292908699833    0.888225371200146    0.110258242192885  0.0000
  O3     O3        0.879601334728752    0.143871441073781    0.105550997349247  0.0000
  O3     O3        0.484951701180848    0.981581266426146    0.032634030723449  0.0000
  O3     O3        0.016711305772994    0.039155282720459    0.038281615218376  0.0000
  O1     O1        0.161527674426204    0.488249021433642    0.324276496134031  0.0000
  O1     O1        0.343133371329456    0.555023404871045    0.323941644499737  0.0000
  O1     O1        0.839128432989490    0.486255860787655    0.639745223953747  0.0000
  O3     O3        0.650434327043345    0.517275872393920    0.650850656965975  0.0000
  O1     O1        0.268550798769062    0.243229824884740    0.271997536719382  0.0000
  O1     O1        0.235237924958106    0.797840254686499    0.269309477894230  0.0000
  O3     O3        0.731185527820010    0.247334539071341    0.713597690315172  0.0000
  O1     O1        0.754829401967910    0.778000456870458    0.699521642217740  0.0000
  O1     O1        0.142893118262875    0.275209193601190    0.107496448780762  0.0000
  O1     O1        0.358902522440502    0.759521253984686    0.106928228719859  0.0000
  O1     O1        0.860847763411875    0.280848362438388    0.857919073755858  0.0000
  O1     O1        0.631999170628162    0.742828052339759    0.861631063536136  0.0000
  O1     O1        0.877468345643721    0.690942214370868    0.855081660880178  0.0000
  O3     O3        0.619795456821520    0.343516913074794    0.856720839115587  0.0000
  O1     O1        0.119594935209766    0.675983015912079    0.108067051917798  0.0000
  O1     O1        0.382125500154429    0.354883406532298    0.110302749143817  0.0000
  O1     O1        0.653446689578220    0.536227850085421    0.076449896110994  0.0000
  O1     O1        0.846045659422551    0.493885005357470    0.071658928183977  0.0000
  O1     O1        0.340790929206440    0.542226467087711    0.892125493487709  0.0000
  O1     O1        0.157442876647092    0.481984529094887    0.890460277554991  0.0000
  O1     O1        0.737204273482424    0.242010230573788    0.024878675055691  0.0000
  O1     O1        0.760940595890718    0.784072108593395    0.017288677155319  0.0000
  O1     O1        0.266175765629217    0.237099512275699    0.947035057474094  0.0000
  O1     O1        0.233030702438791    0.789389852854194    0.945653700787845  0.0000
