data_c01229.vasp
_audit_creation_method             Generated by GULP
_audit_author_name                 Salvador R. G. Balestra
_symmetry_space_group_name_H-M     'P 1             '
_symmetry_Int_Tables_number        1

loop_
_symmetry_equiv_pos_site_id
_symmetry_equiv_pos_as_xyz
_cell_length_a                       17.4891
_cell_length_b                        7.8373
_cell_length_c                       10.2085
_cell_angle_alpha                   88.5460
_cell_angle_beta                    91.9375
_cell_angle_gamma                   87.4669

loop_
_atom_site_label
_atom_site_type_symbol
_atom_site_fract_x
_atom_site_fract_y
_atom_site_fract_z
_atom_site_charge
  Ge     Ge        0.052090000000021    0.000000000000000    0.372269999999958  0.0000
  Ge     Ge        0.463865517133688    0.923871362218920    0.377455807759818  0.0000
  Ge     Ge        0.940968280362838    0.974671071877362    0.617165506067156  0.0000
  Ge     Ge        0.435150202829579    0.956220570290752    0.864125020701025  0.0000
  Ge     Ge        0.048826492323273    0.028158596636213    0.872948375292636  0.0000
  Ge     Ge        0.153168107308825    0.312832377645591    0.310108982190182  0.0000
  Ge     Ge        0.359470564270814    0.623601560928857    0.302773894721692  0.0000
  Ge     Ge        0.822771154953495    0.262527730834445    0.725317860982315  0.0000
  Ge     Ge        0.665760708621500    0.711935870820178    0.740892698864136  0.0000
  Ge     Ge        0.843166762976623    0.669072270020876    0.732245354075101  0.0000
  Ge     Ge        0.634889771618892    0.323085203269674    0.733209781577167  0.0000
  Ge     Ge        0.177881835747906    0.713084895370780    0.306639440147955  0.0000
  Ge     Ge        0.334160078962905    0.219333903173354    0.299145618738891  0.0000
  Ge     Ge        0.645959043498298    0.299570105416025    0.044210344943705  0.0000
  Ge     Ge        0.848224567152759    0.644342809641568    0.063417918213589  0.0000
  Ge     Ge        0.320262830678144    0.235206292064292    0.981830227730471  0.0000
  Ge     Ge        0.171985727859387    0.734850028643594    0.987200556966193  0.0000
  Ge     Ge        0.354386739352124    0.634381086758232    0.983655373331553  0.0000
  Ge     Ge        0.138168331302139    0.338890879635593    0.992103968422116  0.0000
  Ge     Ge        0.835449064366577    0.242050014342218    0.039357348732075  0.0000
  Si     Si        0.545356122111014    0.011716432014877    0.639670984682014  0.0000
  Si     Si        0.552639856704351    0.987483788840158    0.106848349002217  0.0000
  Si     Si        0.951206597525912    0.942147614260112    0.116695296922104  0.0000
  Si     Si        0.673192096377504    0.677057181503406    0.056490718462871  0.0000
  O1     O1        0.088420351478433    0.197529361346202    0.393637221880538  0.0000
  O1     O1        0.426741410629853    0.726752094861281    0.393456529356895  0.0000
  O1     O1        0.863840696535685    0.115704722207147    0.624908590277512  0.0000
  O3     O3        0.604816199549470    0.887932148863103    0.727697779506426  0.0000
  O1     O1        0.914424045673680    0.773186744021846    0.659452610966879  0.0000
  O3     O3        0.573828608152207    0.202100323193761    0.638482335511334  0.0000
  O1     O1        0.126108684164744    0.850405872172259    0.401045563342482  0.0000
  O1     O1        0.391678484229157    0.076855605028574    0.391082170920123  0.0000
  O1     O1        0.973133965685975    0.969320282371570    0.460123928028843  0.0000
  O3     O3        0.537476946202591    0.948055796081141    0.491782691312138  0.0000
  O3     O3        0.023480018492325    0.980771572544902    0.207674074001698  0.0000
  O3     O3        0.499523622854900    0.933389010744638    0.221678022839142  0.0000
  O1     O1        0.017751593552029    0.033241383684542    0.712257404027707  0.0000
  O3     O3        0.463896750636782    0.991873036195870    0.705545317399898  0.0000
  O3     O3        0.596542297980412    0.157725325041793    0.139870403977989  0.0000
  O3     O3        0.916917783050065    0.757680621936128    0.145147842128132  0.0000
  O1     O1        0.353887096299636    0.081760777553199    0.880543593313659  0.0000
  O1     O1        0.129689120451568    0.896995486506909    0.892462252156405  0.0000
  O1     O1        0.417745654822420    0.745250487010269    0.892235850631549  0.0000
  O1     O1        0.067812511851653    0.234496876701724    0.911338620292297  0.0000
  O2     O2        0.614581104239844    0.833388440200700    0.080103273660167  0.0000
  O3     O3        0.881618717849197    0.081299381228090    0.133027395406037  0.0000
  O3     O3        0.503651469821997    0.025416225321094    0.973623695114446  0.0000
  O3     O3        0.977472159352509    0.948261339219956    0.966732827836103  0.0000
  O1     O1        0.168610127627521    0.509127654557742    0.371777287216127  0.0000
  O1     O1        0.347509080263886    0.420523438095365    0.359002317406790  0.0000
  O1     O1        0.839688167001576    0.466353943955972    0.673711376935016  0.0000
  O1     O1        0.632047468413084    0.530417529241601    0.671486288158067  0.0000
  O1     O1        0.237609169874810    0.189192756134246    0.307341435998958  0.0000
  O1     O1        0.274544872710590    0.744621618703707    0.306674666144699  0.0000
  O1     O1        0.726310872006866    0.235701074319196    0.727767616733357  0.0000
  O1     O1        0.753965058416954    0.764875318966427    0.691590820807111  0.0000
  O1     O1        0.116777088652784    0.355124701684064    0.153680147318363  0.0000
  O1     O1        0.387645592037015    0.611038417762537    0.143154522002446  0.0000
  O1     O1        0.864239116608934    0.230971578881190    0.880045613112858  0.0000
  O3     O3        0.682110590124925    0.634806810863485    0.902364775127092  0.0000
  O1     O1        0.859676129310176    0.668805027364116    0.898500098744365  0.0000
  O1     O1        0.603392055780333    0.310837727629088    0.890279101556265  0.0000
  O1     O1        0.143964660705050    0.738588592428234    0.146761608423337  0.0000
  O1     O1        0.359629751973385    0.206071682915383    0.138367604921162  0.0000
  O3     O3        0.644999446761125    0.498898315117895    0.116744404217852  0.0000
  O1     O1        0.858470195806564    0.432759914553503    0.106546302814167  0.0000
  O1     O1        0.340820053616809    0.436261988935358    0.922918006551127  0.0000
  O1     O1        0.148608062767936    0.539083255501516    0.926025508128176  0.0000
  O1     O1        0.738575109040032    0.221285778992493    0.035161849249047  0.0000
  O3     O3        0.757402425721786    0.717662455329067    0.109471187614971  0.0000
  O1     O1        0.223364292051078    0.220559177934404    0.988488884558832  0.0000
  O1     O1        0.269206754792651    0.752280625746943    0.984127423250221  0.0000
