data_c01206.vasp
_audit_creation_method             Generated by GULP
_audit_author_name                 Salvador R. G. Balestra
_symmetry_space_group_name_H-M     'P 1             '
_symmetry_Int_Tables_number        1

loop_
_symmetry_equiv_pos_site_id
_symmetry_equiv_pos_as_xyz
_cell_length_a                       17.6064
_cell_length_b                        7.8163
_cell_length_c                       10.1272
_cell_angle_alpha                   91.3198
_cell_angle_beta                    89.6071
_cell_angle_gamma                   91.0829

loop_
_atom_site_label
_atom_site_type_symbol
_atom_site_fract_x
_atom_site_fract_y
_atom_site_fract_z
_atom_site_charge
  Ge     Ge        0.052090000000021    0.000000000000000    0.372269999999958  0.0000
  Ge     Ge        0.444324473001323    0.051691379088882    0.371775473943384  0.0000
  Ge     Ge        0.941412163641867    0.028079007643139    0.623396277826447  0.0000
  Ge     Ge        0.940293612796980    0.038081169388677    0.129439056937837  0.0000
  Ge     Ge        0.450905413522972    0.038084015776194    0.866998419050649  0.0000
  Ge     Ge        0.045764532468445    0.974174611780053    0.876578525134049  0.0000
  Ge     Ge        0.169642370114168    0.292628926649970    0.263713149678178  0.0000
  Ge     Ge        0.322394003319145    0.766859549578506    0.259271302067629  0.0000
  Ge     Ge        0.640757622303969    0.666665666957706    0.685876854382744  0.0000
  Ge     Ge        0.822755680232099    0.735432565285378    0.692365633760038  0.0000
  Ge     Ge        0.664563634024913    0.266204173287408    0.689338344680047  0.0000
  Ge     Ge        0.352033380922885    0.365992574542925    0.263637342831568  0.0000
  Ge     Ge        0.664876328224979    0.268597126457847    0.011443491258355  0.0000
  Ge     Ge        0.820207329099524    0.750044307280012    0.010899207967286  0.0000
  Ge     Ge        0.349939671417106    0.348995991446680    0.942234611413241  0.0000
  Ge     Ge        0.148277631373515    0.667112669758403    0.934210821487614  0.0000
  Ge     Ge        0.325587067979395    0.754408953499224    0.937916960394616  0.0000
  Ge     Ge        0.170652163524815    0.262847644030880    0.945810068529025  0.0000
  Ge     Ge        0.638350185195018    0.672588844822149    0.005541540291033  0.0000
  Ge     Ge        0.845356439284470    0.344605359031586    0.005742230733053  0.0000
  Si     Si        0.550337864407009    0.978615281933762    0.613070866576701  0.0000
  Si     Si        0.548428345810731    0.986280900940114    0.122335310752124  0.0000
  Si     Si        0.841790672920700    0.338886931444256    0.690111325353961  0.0000
  Si     Si        0.145731469501519    0.687279930059018    0.251003527800095  0.0000
  O1     O1        0.121704421134201    0.154491636643064    0.364395400038958  0.0000
  O1     O1        0.364391273888345    0.926631274437089    0.351566372778084  0.0000
  O3     O3        0.900943485523739    0.227377119521964    0.605394863762787  0.0000
  O3     O3        0.580378168891863    0.787642976242456    0.591382054990165  0.0000
  O1     O1        0.874278344171600    0.869162094353948    0.593668016666114  0.0000
  O3     O3        0.618730596903177    0.114870970055247    0.590150109670130  0.0000
  O3     O3        0.082224056142250    0.797898555927373    0.325255662547197  0.0000
  O1     O1        0.418395997795614    0.258897686441356    0.352427342416724  0.0000
  O1     O1        0.022492850227805    0.997295902870807    0.535106362936452  0.0000
  O3     O3        0.476544029226350    0.020837110642306    0.531033193143300  0.0000
  O1     O1        0.970212662965271    0.047369013217689    0.290460264842290  0.0000
  O3     O3        0.519886412784254    0.992924789118468    0.272750407509923  0.0000
  O1     O1        0.967982620005167    0.017037403880573    0.787045792950698  0.0000
  O3     O3        0.527917250203648    0.998560427220513    0.768514850181442  0.0000
  O3     O3        0.619836505014345    0.114953406996870    0.104138968348315  0.0000
  O1     O1        0.863934440807427    0.900006596980134    0.110786181646492  0.0000
  O1     O1        0.413712041035236    0.237052238072509    0.847476952458561  0.0000
  O1     O1        0.080840721308257    0.771461961412410    0.849081199013496  0.0000
  O1     O1        0.380056093002958    0.886841236672651    0.843371237415290  0.0000
  O1     O1        0.119175820539926    0.119383893285452    0.852627521047662  0.0000
  O3     O3        0.571362653748887    0.791748367519308    0.089332196407682  0.0000
  O1     O1        0.915073598623491    0.240769043640923    0.084313345022005  0.0000
  O3     O3        0.479352757225052    0.040753681370634    0.031021308664910  0.0000
  O1     O1        0.018098626265709    0.975875513904296    0.040267195917644  0.0000
  O3     O3        0.155452738629599    0.503531964836018    0.316789771647475  0.0000
  O1     O1        0.342631459281599    0.571497663962514    0.323617428847783  0.0000
  O3     O3        0.832113534432102    0.525632078284591    0.632112513689973  0.0000
  O1     O1        0.647463429657048    0.462841728508905    0.623076192394019  0.0000
  O1     O1        0.265493530667244    0.259643421731118    0.269049920696587  0.0000
  O3     O3        0.224951579331784    0.794421007984704    0.257896645434691  0.0000
  O3     O3        0.761490112673907    0.234812620968363    0.691028424628910  0.0000
  O1     O1        0.727253413591815    0.772926258390144    0.689914160899017  0.0000
  O1     O1        0.137177025540402    0.254882043028609    0.106197684155431  0.0000
  O1     O1        0.354648331639716    0.776584894890400    0.099409155391389  0.0000
  O3     O3        0.869350046447095    0.364867747900249    0.840478639352826  0.0000
  O1     O1        0.608510455316559    0.646605013119378    0.845175935862767  0.0000
  O1     O1        0.854620115271431    0.763619852247369    0.851750351948708  0.0000
  O1     O1        0.634125853254371    0.258163382074706    0.850606058567999  0.0000
  O3     O3        0.123776700081276    0.647739920841548    0.100047261200950  0.0000
  O1     O1        0.381062833242312    0.376671114548136    0.102069905756725  0.0000
  O1     O1        0.647276427378795    0.473224462591529    0.070790661043537  0.0000
  O1     O1        0.835604769978680    0.548110129157382    0.068743359132114  0.0000
  O1     O1        0.335918667609590    0.546168762452777    0.880307910207509  0.0000
  O1     O1        0.159778541049080    0.462696199178714    0.878455354280430  0.0000
  O1     O1        0.760463490442677    0.233415523205879    0.018424297062689  0.0000
  O1     O1        0.724019919169767    0.780475345531793    0.007395033085671  0.0000
  O1     O1        0.266507497335154    0.228489757052400    0.947632665534648  0.0000
  O1     O1        0.230259352970060    0.791231353632696    0.927674471267633  0.0000
