data_c01253.vasp
_audit_creation_method             Generated by GULP
_audit_author_name                 Salvador R. G. Balestra
_symmetry_space_group_name_H-M     'P 1             '
_symmetry_Int_Tables_number        1

loop_
_symmetry_equiv_pos_site_id
_symmetry_equiv_pos_as_xyz
_cell_length_a                       17.5572
_cell_length_b                        7.8088
_cell_length_c                       10.1581
_cell_angle_alpha                   89.2645
_cell_angle_beta                    90.1547
_cell_angle_gamma                   91.2049

loop_
_atom_site_label
_atom_site_type_symbol
_atom_site_fract_x
_atom_site_fract_y
_atom_site_fract_z
_atom_site_charge
  Ge     Ge        0.052090000000021    0.000000000000000    0.372269999999958  0.0000
  Ge     Ge        0.444392253314621    0.054165212592335    0.368069312548972  0.0000
  Ge     Ge        0.555194231950968    0.003211138609108    0.125001565055272  0.0000
  Ge     Ge        0.946916548872326    0.063569134718267    0.117107214703289  0.0000
  Ge     Ge        0.447341860732604    0.072256156289024    0.872580562326991  0.0000
  Ge     Ge        0.048868972901067    0.002999813059527    0.860180858581956  0.0000
  Ge     Ge        0.174810707232282    0.282465167231204    0.257397913132698  0.0000
  Ge     Ge        0.327309542978867    0.760429808066716    0.258894842960668  0.0000
  Ge     Ge        0.849700455285026    0.378212759800298    0.675947165172107  0.0000
  Ge     Ge        0.643957060456171    0.710698070286218    0.682921311265074  0.0000
  Ge     Ge        0.827279765149834    0.780276141722594    0.682336009904096  0.0000
  Ge     Ge        0.667013297091665    0.306913605599773    0.683921612629938  0.0000
  Ge     Ge        0.143919770187687    0.685085070727846    0.256130864491217  0.0000
  Ge     Ge        0.675763002458708    0.289743096805928    0.004362344662903  0.0000
  Ge     Ge        0.825195316878625    0.780698533555693    0.001937479513368  0.0000
  Ge     Ge        0.147097956976219    0.692135680851844    0.935337864096476  0.0000
  Ge     Ge        0.328076030084316    0.774348286809240    0.943485220015315  0.0000
  Ge     Ge        0.172733431943224    0.288749651638128    0.935687924384685  0.0000
  Ge     Ge        0.645096151736210    0.692212288433314    0.002296912026336  0.0000
  Ge     Ge        0.855360732772205    0.379066573708274    0.996445522777687  0.0000
  Si     Si        0.945917253546285    0.066510085309745    0.613725808955724  0.0000
  Si     Si        0.546997195972168    0.025435753701809    0.617946777537000  0.0000
  Si     Si        0.350962211753099    0.363839619569782    0.248324423432122  0.0000
  Si     Si        0.347237564229889    0.376593993650268    0.937517669515916  0.0000
  O1     O1        0.132367463704382    0.125455211142682    0.350739351735663  0.0000
  O1     O1        0.373407232648734    0.901943523740885    0.360508088062704  0.0000
  O3     O3        0.913638150121067    0.255252979623365    0.589196765411395  0.0000
  O3     O3        0.579224014779364    0.836004408532278    0.598140543194530  0.0000
  O3     O3        0.878513907673739    0.928241726252757    0.587847972993068  0.0000
  O3     O3        0.614985195187168    0.162854982646289    0.590345367265987  0.0000
  O1     O1        0.077270655103141    0.792747979983906    0.344589961992682  0.0000
  O3     O3        0.416656249718387    0.256624612174590    0.316991679782856  0.0000
  O3     O3        0.021189060481748    0.025333689785305    0.533343477746418  0.0000
  O3     O3        0.472856644367404    0.062580604045275    0.532240184666176  0.0000
  O1     O1        0.976712508655113    0.061934106582883    0.277913093990659  0.0000
  O1     O1        0.525004192809967    0.003279227229211    0.285150913114311  0.0000
  O3     O3        0.970332957483844    0.051893594117782    0.767895261505336  0.0000
  O3     O3        0.523709436395095    0.045814093112668    0.771188094258466  0.0000
  O1     O1        0.632866168945354    0.137146073084304    0.101730969254726  0.0000
  O1     O1        0.868917390986884    0.929943225819869    0.098781758825007  0.0000
  O3     O3        0.410074231610374    0.276958409563846    0.857685491449441  0.0000
  O1     O1        0.085123342323917    0.803204190980264    0.837527624277647  0.0000
  O1     O1        0.379225106810410    0.914726968877061    0.846629676149550  0.0000
  O1     O1        0.122663454792551    0.149717553124647    0.839864056163921  0.0000
  O1     O1        0.578360192903892    0.795988264366250    0.090445297674389  0.0000
  O1     O1        0.925084440625766    0.271706343476119    0.077675898221211  0.0000
  O1     O1        0.479336540131377    0.065769437096595    0.031626922342663  0.0000
  O1     O1        0.021238355291244    0.999569350000017    0.022909929282374  0.0000
  O1     O1        0.153210749741930    0.480457580765342    0.316652142562098  0.0000
  O3     O3        0.343556653296238    0.550307845310757    0.310634682720671  0.0000
  O1     O1        0.841066339785253    0.581625352759693    0.613997157233277  0.0000
  O1     O1        0.652546615618279    0.509793343942653    0.620048375636395  0.0000
  O3     O3        0.272459702302399    0.255597418381456    0.263681902519172  0.0000
  O1     O1        0.231126504570055    0.790644013661312    0.262240141180027  0.0000
  O1     O1        0.763119184386216    0.270953490448695    0.675680279351860  0.0000
  O1     O1        0.731296192289330    0.816357599896617    0.680485720980599  0.0000
  O1     O1        0.143976394399349    0.265732411669634    0.097078785648697  0.0000
  O1     O1        0.360938779995410    0.797446350637324    0.102284630717232  0.0000
  O1     O1        0.880648406854824    0.406738396544330    0.834296203379993  0.0000
  O1     O1        0.614363954136114    0.678747357927042    0.841965554883425  0.0000
  O1     O1        0.858545048449039    0.791818059041460    0.842557805749889  0.0000
  O1     O1        0.640495318035198    0.288198321466453    0.846273963263300  0.0000
  O1     O1        0.115265380244115    0.671496231014340    0.095142272757142  0.0000
  O2     O2        0.367362565036457    0.397938511789441    0.093059665569879  0.0000
  O1     O1        0.660423934683729    0.491864989894553    0.065147963807475  0.0000
  O1     O1        0.842365521156394    0.577005863253818    0.062067748480700  0.0000
  O3     O3        0.337957914207684    0.567261196810630    0.882905964378395  0.0000
  O1     O1        0.157001627600176    0.491886336365175    0.875420280603692  0.0000
  O1     O1        0.772015376094646    0.258501152923008    0.001376588468034  0.0000
  O1     O1        0.729042828911368    0.811030319303762    0.000688426754139  0.0000
  O3     O3        0.270175917365684    0.260989334913600    0.929061476978964  0.0000
  O1     O1        0.232184561810372    0.807997803372953    0.941262113867725  0.0000
