data_c01243.vasp
_audit_creation_method             Generated by GULP
_audit_author_name                 Salvador R. G. Balestra
_symmetry_space_group_name_H-M     'P 1             '
_symmetry_Int_Tables_number        1

loop_
_symmetry_equiv_pos_site_id
_symmetry_equiv_pos_as_xyz
_cell_length_a                       17.5330
_cell_length_b                        7.8117
_cell_length_c                       10.2336
_cell_angle_alpha                   90.1079
_cell_angle_beta                    89.9455
_cell_angle_gamma                   91.2244

loop_
_atom_site_label
_atom_site_type_symbol
_atom_site_fract_x
_atom_site_fract_y
_atom_site_fract_z
_atom_site_charge
  Ge     Ge        0.052090000000021    0.000000000000000    0.372269999999958  0.0000
  Ge     Ge        0.451316945174285    0.048802459579653    0.365869853598748  0.0000
  Ge     Ge        0.556566580126287    0.003519216688062    0.113715302456955  0.0000
  Ge     Ge        0.943903017086206    0.064327565401938    0.125833018151954  0.0000
  Ge     Ge        0.450130008431642    0.063452832726258    0.862610524046534  0.0000
  Ge     Ge        0.051575410054896    0.995746239332648    0.874284190842086  0.0000
  Ge     Ge        0.175529122826772    0.282242463782163    0.256364793240350  0.0000
  Ge     Ge        0.327145782973067    0.768120641587180    0.258442091584268  0.0000
  Ge     Ge        0.854635619767810    0.359544202103265    0.691356258018246  0.0000
  Ge     Ge        0.650880051499090    0.690970264718099    0.679528293550160  0.0000
  Ge     Ge        0.832217717876448    0.763561396051279    0.685593092392426  0.0000
  Ge     Ge        0.670778799434089    0.287173350663925    0.691113380096982  0.0000
  Ge     Ge        0.146149310961107    0.687280593955848    0.254405193772535  0.0000
  Ge     Ge        0.357297193795619    0.364571203700155    0.248545216495211  0.0000
  Ge     Ge        0.672425691436092    0.300181250743412    0.005654009241169  0.0000
  Ge     Ge        0.823976280803011    0.779581108147919    0.005015814187040  0.0000
  Ge     Ge        0.352162510772765    0.375557470808973    0.929389984777635  0.0000
  Ge     Ge        0.327043654570144    0.776103739319062    0.941822531710539  0.0000
  Ge     Ge        0.171749562330529    0.292210678654022    0.941018251037820  0.0000
  Ge     Ge        0.854739181226668    0.379816812091127    0.007673181739024  0.0000
  Si     Si        0.951589550770733    0.046982875573415    0.622043050974436  0.0000
  Si     Si        0.553437421681903    0.001038202107345    0.616082910888542  0.0000
  Si     Si        0.150323099116001    0.689501565267960    0.943942408122718  0.0000
  Si     Si        0.647679099192173    0.695150708848514    0.992216047214989  0.0000
  O1     O1        0.129731644553319    0.133005171128949    0.351515046676098  0.0000
  O1     O1        0.373033078631237    0.915884726886734    0.355073927832686  0.0000
  O3     O3        0.918165322206651    0.235546318747524    0.604653871751517  0.0000
  O3     O3        0.584732296178200    0.810435129324001    0.596106813951085  0.0000
  O3     O3        0.885003881216741    0.906804770759538    0.592268463996292  0.0000
  O3     O3        0.622148494952009    0.138330855773964    0.595506908263642  0.0000
  O1     O1        0.076728833344022    0.793465432045503    0.336960034909662  0.0000
  O1     O1        0.426382817772040    0.254418234359859    0.329234032740725  0.0000
  O3     O3        0.025517758938546    0.016079577986908    0.535645145382222  0.0000
  O3     O3        0.481733135452249    0.041273916400479    0.527545602149108  0.0000
  O1     O1        0.973314664631264    0.055904413631839    0.285022309024072  0.0000
  O1     O1        0.526120484270036    0.983130078053144    0.272231059194505  0.0000
  O3     O3        0.974602999986060    0.021392398727471    0.773943754440096  0.0000
  O3     O3        0.526593900448928    0.014228779808869    0.767192410618591  0.0000
  O1     O1        0.627878182153517    0.157114901925443    0.107470500876198  0.0000
  O1     O1        0.863928527746602    0.937598741381359    0.098197587107242  0.0000
  O1     O1        0.415569776057030    0.264627774810564    0.836399445245027  0.0000
  O3     O3        0.091981123016656    0.795526211836949    0.857056250026521  0.0000
  O1     O1        0.374027590327698    0.921662753192712    0.846575551429680  0.0000
  O1     O1        0.118160308059306    0.156170101979118    0.846157807629491  0.0000
  O3     O3        0.582910840123291    0.801038745097947    0.062987618227391  0.0000
  O1     O1        0.921243536088955    0.273060990046895    0.095302831355702  0.0000
  O1     O1        0.479882641693704    0.062820320420781    0.022907802371793  0.0000
  O1     O1        0.018858453628091    0.999276865150632    0.032326440052879  0.0000
  O1     O1        0.158163592157482    0.485294175893746    0.314279816598707  0.0000
  O1     O1        0.344127271377163    0.564299728013866    0.313809016085760  0.0000
  O1     O1        0.846324336911599    0.559611018256954    0.626181636009156  0.0000
  O1     O1        0.656576839166310    0.486273876488279    0.622454583713423  0.0000
  O1     O1        0.271920354766304    0.250373215600555    0.255421809723970  0.0000
  O1     O1        0.230762338449193    0.801362483280264    0.264220351408134  0.0000
  O1     O1        0.767153026221200    0.254317148962821    0.692821009817416  0.0000
  O1     O1        0.736472999666175    0.800497889908964    0.670884335692122  0.0000
  O1     O1        0.141039798987930    0.264218805395011    0.099267506043521  0.0000
  O1     O1        0.359618201292221    0.790774955179967    0.100128556851160  0.0000
  O1     O1        0.885790817468141    0.389316053564872    0.848352206683328  0.0000
  O3     O3        0.626016343538519    0.661316109130587    0.841838745185437  0.0000
  O1     O1        0.857485810478771    0.781203977013035    0.847315841465071  0.0000
  O1     O1        0.638232443054283    0.271572493157487    0.849535410239197  0.0000
  O3     O3        0.120181907260874    0.664913615999126    0.091653013018332  0.0000
  O1     O1        0.382844568861388    0.394029130977806    0.088741479384066  0.0000
  O3     O3        0.657965777779947    0.510183748682208    0.057466031420573  0.0000
  O1     O1        0.844081199392752    0.581887955543822    0.068915646792157  0.0000
  O1     O1        0.342177327545778    0.578113589016627    0.872844565957336  0.0000
  O3     O3        0.162475011039817    0.502172465791988    0.885583900650753  0.0000
  O1     O1        0.768621505811636    0.269524993491848    0.007655116487474  0.0000
  O3     O3        0.726193723952588    0.806248627797746    0.999894109506158  0.0000
  O1     O1        0.267475461429423    0.257509720680105    0.932781860925221  0.0000
  O3     O3        0.229144993196314    0.800868789229912    0.949604479032332  0.0000
