data_c01214.vasp
_audit_creation_method             Generated by GULP
_audit_author_name                 Salvador R. G. Balestra
_symmetry_space_group_name_H-M     'P 1             '
_symmetry_Int_Tables_number        1

loop_
_symmetry_equiv_pos_site_id
_symmetry_equiv_pos_as_xyz
_cell_length_a                       17.5249
_cell_length_b                        7.8157
_cell_length_c                       10.2839
_cell_angle_alpha                   89.9898
_cell_angle_beta                    90.3622
_cell_angle_gamma                   88.5020

loop_
_atom_site_label
_atom_site_type_symbol
_atom_site_fract_x
_atom_site_fract_y
_atom_site_fract_z
_atom_site_charge
  Ge     Ge        0.052090000000021    0.000000000000000    0.372269999999958  0.0000
  Ge     Ge        0.448542377042586    0.940568626691056    0.360529058490252  0.0000
  Ge     Ge        0.947695718977156    0.942932152906685    0.624667324013199  0.0000
  Ge     Ge        0.943335264017856    0.939702218731581    0.123350440972728  0.0000
  Ge     Ge        0.444311317030274    0.941964175560256    0.870272948486357  0.0000
  Ge     Ge        0.143998611953358    0.313653862332244    0.253681639103045  0.0000
  Ge     Ge        0.353932490728257    0.629519240474451    0.247868747057835  0.0000
  Ge     Ge        0.821400414267325    0.226681236828177    0.693487340798538  0.0000
  Ge     Ge        0.664507247202641    0.706846732157526    0.690041930157226  0.0000
  Ge     Ge        0.846376158247103    0.629127434748801    0.688689216175703  0.0000
  Ge     Ge        0.639046604286648    0.304157656961629    0.689523786800222  0.0000
  Ge     Ge        0.173918470499343    0.714827843786864    0.260519861402513  0.0000
  Ge     Ge        0.325012016088603    0.225844615759368    0.250616940962001  0.0000
  Ge     Ge        0.638837755396208    0.309630286616506    0.004127427777960  0.0000
  Ge     Ge        0.848425398626902    0.628766035027487    0.007061227188139  0.0000
  Ge     Ge        0.324482202920295    0.240964321078095    0.936264492799240  0.0000
  Ge     Ge        0.164357759221981    0.715816158950692    0.945471945564555  0.0000
  Ge     Ge        0.142225606915830    0.315892883084453    0.936011197413605  0.0000
  Ge     Ge        0.666609788447388    0.712023612676185    0.007967527982729  0.0000
  Ge     Ge        0.821197558086712    0.226232375852340    0.009005936251540  0.0000
  Si     Si        0.545538811365632    0.989938257141228    0.617214759244767  0.0000
  Si     Si        0.550133580174883    0.999560455692204    0.116671948871152  0.0000
  Si     Si        0.045384721497703    0.006279632808303    0.877965677332720  0.0000
  Si     Si        0.342844217838713    0.636782622650184    0.938367538411968  0.0000
  O1     O1        0.075979442202474    0.206168369810615    0.337100106168938  0.0000
  O1     O1        0.424924810901537    0.733783475054313    0.327032475081959  0.0000
  O1     O1        0.872356405682115    0.084575423191954    0.600255305507537  0.0000
  O3     O3        0.615166227297706    0.854786148203110    0.594798645858111  0.0000
  O1     O1        0.913261424977003    0.741024261859653    0.605085306717316  0.0000
  O3     O3        0.574952937459108    0.181947945150551    0.602714566241089  0.0000
  O1     O1        0.129748630982681    0.865389327562430    0.355525036306554  0.0000
  O1     O1        0.370602747840106    0.074176319088716    0.343974945465552  0.0000
  O1     O1        0.024149151608010    0.986831392721294    0.532180174711800  0.0000
  O3     O3        0.475956661966706    0.954808752478152    0.522047820782628  0.0000
  O1     O1        0.974834260554365    0.940321293052637    0.281256970220096  0.0000
  O3     O3        0.524372102965721    0.998933689509715    0.265787100007839  0.0000
  O3     O3        0.974795913586880    0.962428789365057    0.787908606135413  0.0000
  O3     O3        0.518989213025929    0.959731927954019    0.765878216162847  0.0000
  O3     O3        0.571261743657350    0.193441504986523    0.084023541560587  0.0000
  O1     O1        0.917689505976482    0.734252231258524    0.089446673128789  0.0000
  O1     O1        0.378396055880116    0.104349855553575    0.842783970762363  0.0000
  O3     O3        0.115344227792903    0.870180526511648    0.857153091702067  0.0000
  O3     O3        0.400239736001220    0.746416406170684    0.854040591056185  0.0000
  O3     O3        0.076567195867442    0.195353129875054    0.851909481315913  0.0000
  O3     O3        0.622224504016334    0.871079586576968    0.097658840433940  0.0000
  O1     O1        0.865982024334439    0.076370483624859    0.105357688467567  0.0000
  O3     O3        0.479514362161464    0.941186755781224    0.027999449193185  0.0000
  O3     O3        0.018973504187524    0.001225686004704    0.028173006148972  0.0000
  O1     O1        0.158391599727100    0.511859832739386    0.319140598848464  0.0000
  O1     O1        0.342924375266119    0.428251490715581    0.308560929664227  0.0000
  O1     O1        0.834355262331038    0.428231934143398    0.629193992408724  0.0000
  O1     O1        0.649138407095259    0.504928997546076    0.627200728701245  0.0000
  O1     O1        0.228477512169407    0.195836851701896    0.254156315976082  0.0000
  O1     O1        0.270139693191856    0.747419152526107    0.261287759951512  0.0000
  O1     O1        0.725153780762913    0.192804924673359    0.692208900605147  0.0000
  O1     O1        0.760504182800851    0.742812579435688    0.685546133934690  0.0000
  O1     O1        0.115866643352986    0.343176113827170    0.095206452399794  0.0000
  O3     O3        0.374548522345836    0.607345282291000    0.084187803713574  0.0000
  O1     O1        0.853486558967182    0.212119964945682    0.851906624924552  0.0000
  O1     O1        0.635734224113408    0.716478889623585    0.849464266064490  0.0000
  O1     O1        0.875002300011143    0.606964794721689    0.847876369802999  0.0000
  O1     O1        0.608140726559365    0.331013070789289    0.846201149313380  0.0000
  O1     O1        0.137012375835516    0.729604119894136    0.105095262798411  0.0000
  O1     O1        0.356248501316819    0.210087050511412    0.092882109647544  0.0000
  O1     O1        0.648619429701118    0.510491351919051    0.068428795015322  0.0000
  O1     O1        0.837274341898775    0.427964162492935    0.069511178483521  0.0000
  O3     O3        0.332267858406007    0.449611070830576    0.878693364891838  0.0000
  O1     O1        0.146309963289235    0.519816418293198    0.876362610846279  0.0000
  O1     O1        0.724426915596362    0.198281226592046    0.007062336719287  0.0000
  O1     O1        0.762969165638604    0.742966500077120    0.013647101447359  0.0000
  O1     O1        0.228443009051113    0.205708432568902    0.930311550985617  0.0000
  O3     O3        0.262270246607649    0.741829652941626    0.944683007997760  0.0000
