data_c01261.vasp
_audit_creation_method             Generated by GULP
_audit_author_name                 Salvador R. G. Balestra
_symmetry_space_group_name_H-M     'P 1             '
_symmetry_Int_Tables_number        1

loop_
_symmetry_equiv_pos_site_id
_symmetry_equiv_pos_as_xyz
_cell_length_a                       17.5392
_cell_length_b                        7.8180
_cell_length_c                       10.0690
_cell_angle_alpha                   90.1294
_cell_angle_beta                    90.5935
_cell_angle_gamma                   91.7000

loop_
_atom_site_label
_atom_site_type_symbol
_atom_site_fract_x
_atom_site_fract_y
_atom_site_fract_z
_atom_site_charge
  Ge     Ge        0.052090000000021    0.000000000000000    0.372269999999958  0.0000
  Ge     Ge        0.448472918160479    0.065758321671559    0.373298860185019  0.0000
  Ge     Ge        0.544891889909963    0.997830170758423    0.110232478951466  0.0000
  Ge     Ge        0.951272276742674    0.062511587686341    0.111156708421345  0.0000
  Ge     Ge        0.442836954020351    0.061149232283908    0.846224400119501  0.0000
  Ge     Ge        0.052640638150377    0.002569186729597    0.851693187566105  0.0000
  Ge     Ge        0.172745121931956    0.283766628775742    0.284875876872903  0.0000
  Ge     Ge        0.326253256125973    0.781291442047379    0.289301579015673  0.0000
  Ge     Ge        0.848306242532780    0.352910999354058    0.722885907311386  0.0000
  Ge     Ge        0.642526238267180    0.685084987999040    0.723539264507442  0.0000
  Ge     Ge        0.827849856678565    0.752355784732564    0.717162017219093  0.0000
  Ge     Ge        0.147316060635763    0.690205573735030    0.290278126808969  0.0000
  Ge     Ge        0.352943335517147    0.375529155558122    0.286858796840654  0.0000
  Ge     Ge        0.672090757758682    0.287573237299006    0.044325194805806  0.0000
  Ge     Ge        0.825961795031485    0.773445100575485    0.037954666247778  0.0000
  Ge     Ge        0.353717879060715    0.378038940721775    0.965054033328669  0.0000
  Ge     Ge        0.322626916044449    0.779571520367154    0.967192394644781  0.0000
  Ge     Ge        0.170384403422376    0.297482015601661    0.965061108223717  0.0000
  Ge     Ge        0.645223870576632    0.689689916353428    0.043095101866372  0.0000
  Ge     Ge        0.850564577759250    0.371210057746962    0.049080315118747  0.0000
  Si     Si        0.941896217333813    0.042377343693741    0.607872647024817  0.0000
  Si     Si        0.554571364789603    0.001580690071109    0.611235606701564  0.0000
  Si     Si        0.667886916734845    0.291224139852340    0.726472469246699  0.0000
  Si     Si        0.144125146106773    0.694840669160311    0.975397148647255  0.0000
  O1     O1        0.125801625475133    0.147927306831873    0.391555459134992  0.0000
  O1     O1        0.376045017945331    0.915886343622153    0.394971812268807  0.0000
  O3     O3        0.914264332290142    0.230177394369154    0.644759850615018  0.0000
  O3     O3        0.580365304343659    0.808893830467611    0.632088059145466  0.0000
  O3     O3        0.872305910045001    0.907918899022671    0.621649053898836  0.0000
  O2     O2        0.621850828205900    0.136521413750223    0.652567352493203  0.0000
  O1     O1        0.083875423545477    0.796064739603670    0.387290908500411  0.0000
  O1     O1        0.415197263136978    0.267922440987168    0.387808080967574  0.0000
  O3     O3        0.970151028811596    0.043259022871985    0.456111829080506  0.0000
  O3     O3        0.532240362276652    0.027361125456675    0.457401671011804  0.0000
  O1     O1        0.027825876226254    0.019131319491327    0.205724867643220  0.0000
  O1     O1        0.470070096147919    0.041689042630197    0.206541925230589  0.0000
  O3     O3        0.017373221861918    0.990567376874456    0.689845087585825  0.0000
  O3     O3        0.475529123277078    0.040960134286598    0.684935733415129  0.0000
  O1     O1        0.618239144492874    0.147668693361253    0.133026770907567  0.0000
  O1     O1        0.876257103657871    0.917954412183886    0.132503797852205  0.0000
  O1     O1        0.418532156863703    0.269429856265557    0.873944385016130  0.0000
  O3     O3        0.083404816971127    0.799966287628466    0.891762087459235  0.0000
  O1     O1        0.361917044843187    0.934678565709459    0.868723914304266  0.0000
  O1     O1        0.125002576223083    0.154950063848619    0.859867886408200  0.0000
  O1     O1        0.582077552405224    0.799310875965777    0.136520398802633  0.0000
  O1     O1        0.917897854820757    0.265145385580662    0.136910352955965  0.0000
  O1     O1        0.515854559101567    0.999906242832451    0.946187616337397  0.0000
  O1     O1        0.977600645888983    0.056760515554489    0.946448517316044  0.0000
  O1     O1        0.160697751812919    0.488775240028662    0.345494476241225  0.0000
  O1     O1        0.338118995553825    0.574893237240160    0.346290780363952  0.0000
  O1     O1        0.845689745434280    0.553213397095801    0.653877950901561  0.0000
  O3     O3        0.648989267264282    0.475438050642342    0.664293145142530  0.0000
  O1     O1        0.268989721840234    0.253215073468529    0.280735254009091  0.0000
  O1     O1        0.230164817056569    0.814683855204381    0.292302676897685  0.0000
  O3     O3        0.757481742369081    0.257680023757944    0.715665255704738  0.0000
  O1     O1        0.731378421274292    0.779879671599494    0.715256903590646  0.0000
  O1     O1        0.137984898473142    0.266397597787579    0.124010239130389  0.0000
  O1     O1        0.357216678938287    0.797206785659601    0.127449105206025  0.0000
  O1     O1        0.875261630292456    0.385156947067370    0.883892162743396  0.0000
  O1     O1        0.610469040596288    0.674934907939585    0.881993887610695  0.0000
  O1     O1        0.860105832722984    0.775786035985971    0.877593475854557  0.0000
  O3     O3        0.642611968126278    0.290757189617945    0.878907546275652  0.0000
  O3     O3        0.115950522213247    0.673324610546973    0.126096685339319  0.0000
  O1     O1        0.385853764917476    0.392028507784794    0.126945629594047  0.0000
  O1     O1        0.659563590948421    0.491715577662720    0.105676473656671  0.0000
  O1     O1        0.837830566816534    0.572521309431686    0.106328539730125  0.0000
  O1     O1        0.343896647357763    0.581424583054048    0.905447795144690  0.0000
  O3     O3        0.154373379628734    0.506892995417348    0.914665259202810  0.0000
  O1     O1        0.766904272792349    0.248120585808447    0.053404226031167  0.0000
  O1     O1        0.730045856482304    0.807491185088806    0.033687878766189  0.0000
  O1     O1        0.266731261541124    0.269857718066439    0.962429668826296  0.0000
  O3     O3        0.224737510969514    0.799770666948623    0.974605512714288  0.0000
