data_c01277.vasp
_audit_creation_method             Generated by GULP
_audit_author_name                 Salvador R. G. Balestra
_symmetry_space_group_name_H-M     'P 1             '
_symmetry_Int_Tables_number        1

loop_
_symmetry_equiv_pos_site_id
_symmetry_equiv_pos_as_xyz
_cell_length_a                       17.4270
_cell_length_b                        7.8306
_cell_length_c                       10.2656
_cell_angle_alpha                   89.8510
_cell_angle_beta                    89.7886
_cell_angle_gamma                   92.0124

loop_
_atom_site_label
_atom_site_type_symbol
_atom_site_fract_x
_atom_site_fract_y
_atom_site_fract_z
_atom_site_charge
  Ge     Ge        0.052090000000021    0.000000000000000    0.372269999999958  0.0000
  Ge     Ge        0.447293172396470    0.057415865413593    0.339207536407411  0.0000
  Ge     Ge        0.546323649558547    0.986008759721799    0.078571380394052  0.0000
  Ge     Ge        0.947527960985196    0.056821281055746    0.116976699721624  0.0000
  Ge     Ge        0.442343648071647    0.047048652588168    0.822971780031418  0.0000
  Ge     Ge        0.173199867941426    0.285976857211803    0.256894772010851  0.0000
  Ge     Ge        0.324717294958173    0.775348980290464    0.250554870674086  0.0000
  Ge     Ge        0.853240643128075    0.363741255122402    0.685936480035022  0.0000
  Ge     Ge        0.644837651164170    0.688595035887681    0.692072152917035  0.0000
  Ge     Ge        0.830202704883670    0.763273881451435    0.691156620968831  0.0000
  Ge     Ge        0.669034935872801    0.286498029306828    0.690325561286197  0.0000
  Ge     Ge        0.142684797070063    0.686901315279104    0.253833221128190  0.0000
  Ge     Ge        0.356530539954667    0.372006890920243    0.253187041312834  0.0000
  Ge     Ge        0.672623697656137    0.274927842583162    0.007816685884585  0.0000
  Ge     Ge        0.825466064358866    0.767555861685330    0.007393940007452  0.0000
  Ge     Ge        0.352172955941182    0.364144730077024    0.941383607422021  0.0000
  Ge     Ge        0.144757083204731    0.684810394795858    0.938278566250587  0.0000
  Ge     Ge        0.166570899821675    0.285421333733598    0.943408199363216  0.0000
  Ge     Ge        0.644196318992016    0.675356483718782    0.008751237111082  0.0000
  Ge     Ge        0.853703092828922    0.367602073628893    0.003800609037100  0.0000
  Si     Si        0.950597099093795    0.051963744396328    0.623524861539363  0.0000
  Si     Si        0.550609217540516    0.994916623428437    0.581567460763952  0.0000
  Si     Si        0.050312576957456    0.992327175700320    0.867890621440833  0.0000
  Si     Si        0.325505906690029    0.762201050101653    0.942224140403606  0.0000
  O1     O1        0.131316395666750    0.133314320518661    0.354922219295893  0.0000
  O1     O1        0.370219326061142    0.915578971666944    0.353435095221059  0.0000
  O3     O3        0.919722714714118    0.241302716623590    0.605862501057895  0.0000
  O3     O3        0.577759085303480    0.805024149096670    0.609382058102120  0.0000
  O3     O3        0.880617972080176    0.916553391192902    0.600475789893704  0.0000
  O3     O3        0.620344441544170    0.129567941291606    0.603741536890557  0.0000
  O1     O1        0.075652723813607    0.793330518359414    0.341232520942126  0.0000
  O1     O1        0.417623914189731    0.262537315388329    0.352361815786444  0.0000
  O3     O3        0.021758817067524    0.016545547213085    0.532192702708350  0.0000
  O3     O3        0.525444306715654    0.009450874052527    0.431020653030851  0.0000
  O1     O1        0.978553523426275    0.059497062532525    0.274429099062966  0.0000
  O1     O1        0.472288061567758    0.029030749189998    0.177245760297728  0.0000
  O2     O2        0.979127094797563    0.029138070478261    0.773821910634701  0.0000
  O3     O3        0.474241060207639    0.036930148679055    0.662880704280160  0.0000
  O1     O1        0.622853999861808    0.129557180048722    0.100631220778336  0.0000
  O1     O1        0.869703100260360    0.918489371229482    0.103138316021345  0.0000
  O1     O1        0.412185315023639    0.252091452874391    0.844253006036090  0.0000
  O3     O3        0.085225736757170    0.807366459620241    0.844550557483640  0.0000
  O3     O3        0.366379557899693    0.902340020356009    0.849521987653010  0.0000
  O3     O3        0.117874697173023    0.135369944490765    0.849648114534423  0.0000
  O1     O1        0.578665990678971    0.782677592857287    0.098614187921982  0.0000
  O1     O1        0.923769105815591    0.262645472266058    0.082849724045293  0.0000
  O1     O1        0.518796661159096    0.003394347371336    0.917672497219110  0.0000
  O3     O3        0.021058882321480    0.992733028459101    0.016824430457688  0.0000
  O1     O1        0.157260092850866    0.487902444636958    0.316226182937987  0.0000
  O1     O1        0.343475716626610    0.573025638219695    0.307800249984299  0.0000
  O1     O1        0.846029508137109    0.565549530093017    0.623438160193833  0.0000
  O1     O1        0.652632600272267    0.486649819364684    0.628439630921429  0.0000
  O1     O1        0.269869789187370    0.258448461684675    0.248098386002275  0.0000
  O1     O1        0.228237574166621    0.804983053062466    0.254292271437995  0.0000
  O1     O1        0.765868075977256    0.255011529507347    0.681678597404824  0.0000
  O1     O1        0.733059343291930    0.793847477702130    0.686320407047709  0.0000
  O1     O1        0.135129313028806    0.270914053049462    0.102214628465183  0.0000
  O3     O3        0.357154164230242    0.783237986244881    0.089241312805145  0.0000
  O1     O1        0.880359212017868    0.395810283391881    0.844099328396581  0.0000
  O1     O1        0.614260853503098    0.659631113000005    0.849111381536329  0.0000
  O1     O1        0.859576920702556    0.777020646689583    0.850126370977527  0.0000
  O1     O1        0.639896663350010    0.271883323137471    0.849383317219271  0.0000
  O1     O1        0.112258738979503    0.664903296322805    0.095608747895823  0.0000
  O1     O1        0.390276704815205    0.372622038837538    0.095107612824019  0.0000
  O1     O1        0.658230299922802    0.477057599594275    0.069795462091077  0.0000
  O1     O1        0.840314297641031    0.565337513512136    0.068631048670002  0.0000
  O3     O3        0.341537354427034    0.572841420098225    0.889072693446495  0.0000
  O1     O1        0.149463652803238    0.483625192299804    0.877247944914388  0.0000
  O1     O1        0.769490187004256    0.244607351038576    0.008071036918588  0.0000
  O1     O1        0.728669076478165    0.797020433169606    0.004715314437826  0.0000
  O1     O1        0.263659913204040    0.260077300719224    0.942319582639002  0.0000
  O3     O3        0.234556270721434    0.787149051460302    0.945121419978514  0.0000
