data_c01285.vasp
_audit_creation_method             Generated by GULP
_audit_author_name                 Salvador R. G. Balestra
_symmetry_space_group_name_H-M     'P 1             '
_symmetry_Int_Tables_number        1

loop_
_symmetry_equiv_pos_site_id
_symmetry_equiv_pos_as_xyz
_cell_length_a                       17.4965
_cell_length_b                        7.8192
_cell_length_c                       10.1787
_cell_angle_alpha                   90.3768
_cell_angle_beta                    90.4280
_cell_angle_gamma                   88.5231

loop_
_atom_site_label
_atom_site_type_symbol
_atom_site_fract_x
_atom_site_fract_y
_atom_site_fract_z
_atom_site_charge
  Ge     Ge        0.052090000000021    0.000000000000000    0.372269999999958  0.0000
  Ge     Ge        0.451443069180965    0.939940552289515    0.377592679373127  0.0000
  Ge     Ge        0.553135735033716    0.003905620502810    0.119857533385784  0.0000
  Ge     Ge        0.449678295865675    0.938217660782865    0.860469785426931  0.0000
  Ge     Ge        0.057094331376207    0.996121879486110    0.862804083636558  0.0000
  Ge     Ge        0.148440545719646    0.311569055129681    0.292763599364552  0.0000
  Ge     Ge        0.355662259783182    0.626240509223955    0.295641113815469  0.0000
  Ge     Ge        0.832773220254690    0.236309244726802    0.725444208667350  0.0000
  Ge     Ge        0.673995400436961    0.709504895618122    0.730855007224506  0.0000
  Ge     Ge        0.858371175915206    0.636929938890156    0.729151993540588  0.0000
  Ge     Ge        0.648658036818220    0.307621650919291    0.733589039993530  0.0000
  Ge     Ge        0.175099729713039    0.717158470583018    0.289608461469699  0.0000
  Ge     Ge        0.327992714214821    0.221491431422260    0.295333109141917  0.0000
  Ge     Ge        0.656022296584678    0.310642281022205    0.054210209793673  0.0000
  Ge     Ge        0.859064351676779    0.633371351341320    0.047954064883352  0.0000
  Ge     Ge        0.327992910081657    0.220999548651333    0.976448598622849  0.0000
  Ge     Ge        0.175128594279613    0.702349348810003    0.972484166665380  0.0000
  Ge     Ge        0.358385864848816    0.622696020575661    0.976227125746061  0.0000
  Ge     Ge        0.677749288335877    0.713450492610201    0.048933282479803  0.0000
  Ge     Ge        0.837314081519743    0.230657318787216    0.044563074945071  0.0000
  Si     Si        0.948468872303264    0.948644429375676    0.617657883150829  0.0000
  Si     Si        0.556940211982541    0.997170681593956    0.619904478995743  0.0000
  Si     Si        0.956044307323397    0.940643062016322    0.114232759713018  0.0000
  Si     Si        0.149392351992658    0.305280538413202    0.981073515940265  0.0000
  O1     O1        0.082769622416736    0.205539569011498    0.383921250595845  0.0000
  O1     O1        0.419180361627586    0.736429561388001    0.392115798770253  0.0000
  O3     O3        0.876179071636324    0.075766898087572    0.634088371667739  0.0000
  O3     O3        0.628505789656294    0.869387196532686    0.642203009975924  0.0000
  O3     O3        0.925560450588325    0.756105991348842    0.649723513712396  0.0000
  O3     O3        0.580039212260013    0.189882744402354    0.653158307085320  0.0000
  O1     O1        0.127234906331066    0.856977602660485    0.391540072139730  0.0000
  O1     O1        0.377196273208222    0.085338728843363    0.397936162819776  0.0000
  O3     O3        0.974942161855889    0.956970843042424    0.467005212172717  0.0000
  O3     O3        0.531778827905046    0.984804259625651    0.467801341897917  0.0000
  O3     O3        0.026675945185672    0.974310848779640    0.207493328478160  0.0000
  O1     O1        0.477287842380231    0.962917990027304    0.214668154078066  0.0000
  O3     O3        0.020981154976136    0.006361872726425    0.704237182921150  0.0000
  O3     O3        0.482030223271561    0.943784292454252    0.699824479801891  0.0000
  O1     O1        0.591771535313551    0.202021936714164    0.144952850477170  0.0000
  O3     O3        0.922886766272160    0.753045383988384    0.137847417609173  0.0000
  O1     O1        0.368857538981960    0.065981669246954    0.879550901098293  0.0000
  O1     O1        0.128518356672125    0.842698996047090    0.869246981338187  0.0000
  O1     O1        0.425780156518059    0.730649793797798    0.891475572318657  0.0000
  O3     O3        0.088876334229808    0.199275642968864    0.897456723475127  0.0000
  O1     O1        0.626107203267949    0.854230907351275    0.142405769298250  0.0000
  O3     O3        0.889052373973466    0.083641909538845    0.136164059418503  0.0000
  O1     O1        0.522759324164037    0.004750627599426    0.957889248203724  0.0000
  O3     O3        0.982052826386607    0.946086123410262    0.962411317454341  0.0000
  O1     O1        0.161491095135494    0.513206012623102    0.349300790511726  0.0000
  O1     O1        0.340751236018433    0.427205072561512    0.354237617326903  0.0000
  O1     O1        0.849746942616429    0.435545284545877    0.662190907308132  0.0000
  O1     O1        0.655116225492453    0.509505733635689    0.668604890581051  0.0000
  O1     O1        0.231641057597292    0.188435283670742    0.297330061824784  0.0000
  O1     O1        0.271715228524777    0.747819958313221    0.290059540663672  0.0000
  O1     O1        0.736262736379442    0.204428771154007    0.724128300736822  0.0000
  O1     O1        0.770562799570666    0.740343480068331    0.725761455377081  0.0000
  O3     O3        0.119930431116316    0.329023412355595    0.129393552659286  0.0000
  O1     O1        0.388088171240692    0.606886753574477    0.137145859559301  0.0000
  O1     O1        0.866582331877394    0.224401218185354    0.883784521575083  0.0000
  O1     O1        0.642885919387354    0.723729203545461    0.889964205215644  0.0000
  O1     O1        0.887750743745637    0.606616454127629    0.887954690656651  0.0000
  O1     O1        0.623922808510101    0.333551005306383    0.894448259752716  0.0000
  O1     O1        0.142935550838761    0.733619536867530    0.129572350851948  0.0000
  O1     O1        0.360513887996027    0.204096219574530    0.135971236943051  0.0000
  O1     O1        0.668841681767720    0.511548058795652    0.114276640476912  0.0000
  O1     O1        0.850212955442996    0.432952278167982    0.110384591679576  0.0000
  O1     O1        0.349241490463898    0.418841486759084    0.915942836857179  0.0000
  O3     O3        0.160644885091710    0.492224588580139    0.921165009608346  0.0000
  O1     O1        0.741235253063067    0.194077078261305    0.049141527330306  0.0000
  O1     O1        0.773806922980878    0.748772025652130    0.044955328798310  0.0000
  O3     O3        0.229758664746276    0.199368086508485    0.981564717166344  0.0000
  O1     O1        0.271764078010183    0.732142651802632    0.968967189747280  0.0000
