data_c01210.vasp
_audit_creation_method             Generated by GULP
_audit_author_name                 Salvador R. G. Balestra
_symmetry_space_group_name_H-M     'P 1             '
_symmetry_Int_Tables_number        1

loop_
_symmetry_equiv_pos_site_id
_symmetry_equiv_pos_as_xyz
_cell_length_a                       17.5829
_cell_length_b                        7.8230
_cell_length_c                       10.1658
_cell_angle_alpha                   89.9379
_cell_angle_beta                    89.3077
_cell_angle_gamma                   88.3960

loop_
_atom_site_label
_atom_site_type_symbol
_atom_site_fract_x
_atom_site_fract_y
_atom_site_fract_z
_atom_site_charge
  Ge     Ge        0.052090000000021    0.000000000000000    0.372269999999958  0.0000
  Ge     Ge        0.443761929357868    0.949287422740211    0.389322979720368  0.0000
  Ge     Ge        0.943807853651463    0.952009796915206    0.627140126682723  0.0000
  Ge     Ge        0.941178403190826    0.950682057867916    0.128215885628064  0.0000
  Ge     Ge        0.444841704989223    0.949705163577992    0.879403344033324  0.0000
  Ge     Ge        0.047675799394328    0.010153637413415    0.877852728780145  0.0000
  Ge     Ge        0.346804156551466    0.632915488324358    0.319706021024055  0.0000
  Ge     Ge        0.820196611773636    0.239016588003357    0.743204469279524  0.0000
  Ge     Ge        0.665028571007086    0.718558206445538    0.738764784559993  0.0000
  Ge     Ge        0.847374627809102    0.641027210677182    0.743920838700993  0.0000
  Ge     Ge        0.637762192432886    0.316756823932262    0.744529353827417  0.0000
  Ge     Ge        0.322978009985842    0.235260206029286    0.309249485693567  0.0000
  Ge     Ge        0.636711882985996    0.320332386630034    0.063100657143703  0.0000
  Ge     Ge        0.839817781233382    0.642531494107901    0.065128607316779  0.0000
  Ge     Ge        0.321769063516467    0.234593251332054    0.990034216446666  0.0000
  Ge     Ge        0.170704337118391    0.724519231940306    0.998772982864550  0.0000
  Ge     Ge        0.350702015808711    0.638534623884537    0.997369631938526  0.0000
  Ge     Ge        0.140889360357024    0.318338226915669    0.996939394515114  0.0000
  Ge     Ge        0.659174007072089    0.723728464388757    0.058042996299244  0.0000
  Ge     Ge        0.817518622889160    0.240166959892788    0.061600027755523  0.0000
  Si     Si        0.550002286673184    0.004977582053166    0.630080104196947  0.0000
  Si     Si        0.541696071806932    0.013851881369857    0.132954372379668  0.0000
  Si     Si        0.144505709501886    0.315658835168724    0.306414517817513  0.0000
  Si     Si        0.168823689240842    0.706596389734485    0.311743767883996  0.0000
  O3     O3        0.089745772786405    0.201474585664030    0.395927237753301  0.0000
  O1     O1        0.409871732568027    0.748089962700859    0.408640854590827  0.0000
  O1     O1        0.866611597965335    0.087280786559722    0.650081968752406  0.0000
  O3     O3        0.621798143418742    0.876770552695863    0.645260808804054  0.0000
  O1     O1        0.916106680815538    0.747326863750366    0.659225005014104  0.0000
  O3     O3        0.572158484042647    0.198070189239022    0.661263350506319  0.0000
  O3     O3        0.120243764922108    0.838398011176571    0.401403575729309  0.0000
  O1     O1        0.366694116304186    0.087137737133105    0.407702185777751  0.0000
  O1     O1        0.972861673694385    0.968920626445928    0.465132411329863  0.0000
  O3     O3        0.521504042428489    0.995155918300138    0.480504782726100  0.0000
  O1     O1        0.021707076732254    0.989055080723661    0.212140043941154  0.0000
  O3     O3        0.470842680255022    0.974782022288223    0.224873297966495  0.0000
  O1     O1        0.022393824232135    0.004345273175646    0.715331263556075  0.0000
  O3     O3        0.478859576978088    0.948054489996323    0.719287693318091  0.0000
  O3     O3        0.574242761574768    0.201658280205004    0.156908612877339  0.0000
  O1     O1        0.903146432461096    0.753386986812376    0.155887435473232  0.0000
  O1     O1        0.367533335543469    0.086775067253622    0.891498810397147  0.0000
  O1     O1        0.124370416631929    0.874900271007386    0.907027812751184  0.0000
  O1     O1        0.419737841308158    0.744045121677192    0.913282577948210  0.0000
  O1     O1        0.072123146083646    0.216843433338821    0.913038326748102  0.0000
  O3     O3        0.608273361731472    0.870235967108364    0.152575442625408  0.0000
  O1     O1        0.869289965703506    0.100745143409089    0.155912630688393  0.0000
  O3     O3        0.516793353874740    0.012574649995811    0.980407321720959  0.0000
  O1     O1        0.968520586315065    0.952057591568942    0.964141816015049  0.0000
  O2     O2        0.155188394725343    0.509502710804875    0.358731119050259  0.0000
  O1     O1        0.341781505133179    0.430451734388522    0.378226360671697  0.0000
  O1     O1        0.836732852648544    0.439712071827417    0.681259139024796  0.0000
  O1     O1        0.647821320666268    0.517395502676635    0.678228012422329  0.0000
  O3     O3        0.225539364774278    0.215420019732517    0.301707578271810  0.0000
  O3     O3        0.258050334473993    0.738649928929499    0.321884535612332  0.0000
  O1     O1        0.723895702515401    0.208316239185214    0.743330359814220  0.0000
  O1     O1        0.760856217003532    0.750582097581851    0.736934597751227  0.0000
  O3     O3        0.111469328495880    0.327232588709904    0.160614176822414  0.0000
  O1     O1        0.376769263155946    0.619429957019622    0.158957836060670  0.0000
  O1     O1        0.851949731764257    0.226255723306752    0.902411345750284  0.0000
  O1     O1        0.630096011657496    0.732634034280192    0.897105656238442  0.0000
  O1     O1        0.872289837649241    0.619423648919025    0.905602545284867  0.0000
  O1     O1        0.607031591406424    0.345715160737175    0.903568717101033  0.0000
  O3     O3        0.141441353170993    0.733473578172946    0.162523142379666  0.0000
  O1     O1        0.354164134575632    0.218099689051403    0.148789528864558  0.0000
  O1     O1        0.645358899467041    0.522207146023719    0.123559755086681  0.0000
  O1     O1        0.826649486419608    0.442756653534909    0.126015975941424  0.0000
  O1     O1        0.338406643285145    0.438879210592055    0.934318813495724  0.0000
  O1     O1        0.151840985529642    0.522812504888224    0.941494125932073  0.0000
  O1     O1        0.721793962571634    0.205585963104993    0.059799360078768  0.0000
  O1     O1        0.754789903717708    0.758897690412668    0.060960516987159  0.0000
  O1     O1        0.225624536337076    0.204526629712969    0.984890551568791  0.0000
  O1     O1        0.266441058331902    0.755994909235874    0.990283502123391  0.0000
