data_c01254.vasp
_audit_creation_method             Generated by GULP
_audit_author_name                 Salvador R. G. Balestra
_symmetry_space_group_name_H-M     'P 1             '
_symmetry_Int_Tables_number        1

loop_
_symmetry_equiv_pos_site_id
_symmetry_equiv_pos_as_xyz
_cell_length_a                       17.7086
_cell_length_b                        7.8216
_cell_length_c                       10.3649
_cell_angle_alpha                   89.5508
_cell_angle_beta                    90.0033
_cell_angle_gamma                   90.1660

loop_
_atom_site_label
_atom_site_type_symbol
_atom_site_fract_x
_atom_site_fract_y
_atom_site_fract_z
_atom_site_charge
  Ge     Ge        0.052090000000021    0.000000000000000    0.372269999999958  0.0000
  Ge     Ge        0.449543019408176    0.039125249740843    0.372306114099040  0.0000
  Ge     Ge        0.559800251962355    0.053991149122904    0.126085739038820  0.0000
  Ge     Ge        0.944705222350175    0.027902168189258    0.118784255744021  0.0000
  Ge     Ge        0.454798414591123    0.049473961983248    0.872222988686099  0.0000
  Ge     Ge        0.051800549684708    0.026117298834295    0.869898584819772  0.0000
  Ge     Ge        0.174316435307098    0.285208810501933    0.255235949394265  0.0000
  Ge     Ge        0.332843505025421    0.748387044394131    0.265401129871543  0.0000
  Ge     Ge        0.835434289379128    0.310255662252227    0.696225006118115  0.0000
  Ge     Ge        0.668999623908395    0.769325952460009    0.690320780521850  0.0000
  Ge     Ge        0.850132200423920    0.718840866504645    0.688757081868673  0.0000
  Ge     Ge        0.652702166123338    0.360561931660655    0.697338254038039  0.0000
  Ge     Ge        0.151315369612011    0.691305347624307    0.270100136050363  0.0000
  Ge     Ge        0.650026286086899    0.374182987179968    0.010403472333244  0.0000
  Ge     Ge        0.353954813626079    0.362867969381838    0.946746667771053  0.0000
  Ge     Ge        0.151546057051427    0.710217894194187    0.955192739418398  0.0000
  Ge     Ge        0.331868156883520    0.773408269959814    0.953610438392864  0.0000
  Ge     Ge        0.175044191736021    0.302188959055206    0.940462721175644  0.0000
  Ge     Ge        0.676736492167816    0.779023675268215    0.003789432006067  0.0000
  Ge     Ge        0.831405949782265    0.318437387178348    0.006784463047837  0.0000
  Si     Si        0.949891719928647    0.028625014260584    0.618899278079809  0.0000
  Si     Si        0.554041757291480    0.052157916008787    0.618797422244779  0.0000
  Si     Si        0.351150731135952    0.345160764352056    0.254245647181777  0.0000
  Si     Si        0.852982059564943    0.718158969847655    0.995195936556051  0.0000
  O1     O1        0.127772341072822    0.131421660878344    0.340472109655190  0.0000
  O1     O1        0.385410869697021    0.875967034316629    0.364656551718735  0.0000
  O3     O3        0.885965273313917    0.172417398480275    0.599192067112457  0.0000
  O3     O3        0.615858085398325    0.905077269896048    0.594165624873342  0.0000
  O3     O3        0.912952873832244    0.841884436881285    0.600370925661527  0.0000
  O3     O3        0.593448498093927    0.236359846629042    0.603602683410628  0.0000
  O1     O1        0.086588633289407    0.796378599678129    0.363054817746342  0.0000
  O3     O3        0.410036884683377    0.235468398548864    0.336948731444882  0.0000
  O3     O3        0.021370003909582    0.048181600084747    0.526910615332492  0.0000
  O3     O3        0.480670505236519    0.039868047117622    0.530914648221165  0.0000
  O1     O1        0.975103092581581    0.027646391663266    0.275450176084810  0.0000
  O1     O1        0.528297435636635    0.013299518873261    0.279304440597182  0.0000
  O3     O3        0.977364534231945    0.049228950565293    0.766311687025041  0.0000
  O3     O3        0.527883735545619    0.023767207583032    0.766848106798097  0.0000
  O1     O1        0.586273321052512    0.263650705740911    0.102602184891781  0.0000
  O3     O3        0.912740255325062    0.826146130286388    0.075982729090367  0.0000
  O1     O1        0.421343729638386    0.255278451058735    0.862738315022876  0.0000
  O1     O1        0.088498880844662    0.823895021262501    0.864021923784913  0.0000
  O1     O1        0.379992672220936    0.910375208840038    0.854566878045830  0.0000
  O1     O1        0.123873784649728    0.170878986584299    0.843338606564259  0.0000
  O1     O1        0.638833737413545    0.931731153719191    0.098494705203021  0.0000
  O1     O1        0.876727550418374    0.182711490752057    0.109748941789670  0.0000
  O1     O1        0.488510428739894    0.999607775034126    0.023236343962725  0.0000
  O1     O1        0.020115998914714    0.073960988258974    0.022280816885250  0.0000
  O1     O1        0.157476514522969    0.483110297354364    0.320281012085703  0.0000
  O3     O3        0.342328292365915    0.534305501106475    0.310365165862739  0.0000
  O1     O1        0.846349362182515    0.514094716121574    0.633726402668376  0.0000
  O1     O1        0.658179425865607    0.563396755386139    0.635434606873327  0.0000
  O3     O3        0.270852868357422    0.247560847741911    0.256130788871691  0.0000
  O1     O1        0.238340663026161    0.790389533265384    0.277240583323667  0.0000
  O1     O1        0.740475934712039    0.266106991394253    0.697825119309466  0.0000
  O1     O1        0.763682372888695    0.816435418884007    0.680447861132439  0.0000
  O1     O1        0.144991984682646    0.286047800591409    0.098193690172378  0.0000
  O1     O1        0.363678456518565    0.782074626867298    0.110888215530518  0.0000
  O1     O1        0.866147664498785    0.296441098014815    0.853299623529112  0.0000
  O1     O1        0.641999164113827    0.781865612340160    0.849025310222719  0.0000
  O3     O3        0.880446843228122    0.703398080247135    0.847708432178853  0.0000
  O1     O1        0.619293707258827    0.372620495219623    0.852395498489285  0.0000
  O1     O1        0.120546671030875    0.700393224760678    0.112361090782793  0.0000
  O3     O3        0.380951409374646    0.358824395022910    0.108150224516400  0.0000
  O1     O1        0.657796108481300    0.578705707327632    0.065943076604116  0.0000
  O3     O3        0.843571971858201    0.529796365814554    0.055133396132871  0.0000
  O1     O1        0.345106589242705    0.568641708235046    0.896029027909018  0.0000
  O1     O1        0.163521623936378    0.511889910780426    0.891917267741913  0.0000
  O1     O1        0.736822471180977    0.276133471365102    0.010101214955019  0.0000
  O3     O3        0.773028861218742    0.815357320912275    0.994993216821709  0.0000
  O1     O1        0.269484035834163    0.255890192549997    0.933156896238832  0.0000
  O1     O1        0.237191251990458    0.816468874658172    0.956428167487935  0.0000
