data_c01251.vasp
_audit_creation_method             Generated by GULP
_audit_author_name                 Salvador R. G. Balestra
_symmetry_space_group_name_H-M     'P 1             '
_symmetry_Int_Tables_number        1

loop_
_symmetry_equiv_pos_site_id
_symmetry_equiv_pos_as_xyz
_cell_length_a                       17.4916
_cell_length_b                        7.8245
_cell_length_c                       10.1964
_cell_angle_alpha                   89.4021
_cell_angle_beta                    90.5782
_cell_angle_gamma                   88.2527

loop_
_atom_site_label
_atom_site_type_symbol
_atom_site_fract_x
_atom_site_fract_y
_atom_site_fract_z
_atom_site_charge
  Ge     Ge        0.052090000000021    0.000000000000000    0.372269999999958  0.0000
  Ge     Ge        0.444969465443873    0.952951042491816    0.365247583426474  0.0000
  Ge     Ge        0.553706166591588    0.011172065169560    0.120721919030726  0.0000
  Ge     Ge        0.945482954592124    0.945683700926513    0.117655938295834  0.0000
  Ge     Ge        0.445224623054499    0.949130646959304    0.868570525772707  0.0000
  Ge     Ge        0.046615819146663    0.018989826164649    0.861869147900718  0.0000
  Ge     Ge        0.146337943117273    0.314808339027444    0.251097671134049  0.0000
  Ge     Ge        0.355499008016837    0.634188469089290    0.249114514388727  0.0000
  Ge     Ge        0.826353767290088    0.240676335806165    0.683988156933292  0.0000
  Ge     Ge        0.664844616513554    0.716909299037220    0.682723757503344  0.0000
  Ge     Ge        0.848387862651773    0.642272634877951    0.677632962484074  0.0000
  Ge     Ge        0.642235660914363    0.314669335271923    0.682365416339653  0.0000
  Ge     Ge        0.173002721126341    0.715810424266208    0.260327767282371  0.0000
  Ge     Ge        0.642429998693758    0.325801663912251    0.999963225189695  0.0000
  Ge     Ge        0.854884963754238    0.633593463553046    0.996596291450999  0.0000
  Ge     Ge        0.325223173815697    0.247421167308619    0.938629185237127  0.0000
  Ge     Ge        0.169914513304210    0.729347759749348    0.943256119855245  0.0000
  Ge     Ge        0.144205759914245    0.328536998617406    0.930607829915481  0.0000
  Ge     Ge        0.673950244898662    0.725790455688792    0.001914869348531  0.0000
  Ge     Ge        0.823852723939505    0.233444061446894    0.002167451094474  0.0000
  Si     Si        0.944446581693117    0.953601578608254    0.614335265961216  0.0000
  Si     Si        0.544987457415993    0.003949368472668    0.616120600144211  0.0000
  Si     Si        0.326556966769894    0.237998603771044    0.248473540712924  0.0000
  Si     Si        0.348120475900043    0.644190694750880    0.940510746408448  0.0000
  O1     O1        0.081717305692792    0.202491384331133    0.338889713626641  0.0000
  O1     O1        0.421102018014954    0.744906879277787    0.336902488071095  0.0000
  O3     O3        0.876772471139400    0.094564120800110    0.589233686443215  0.0000
  O3     O3        0.612466449352816    0.864339765565659    0.588497649286085  0.0000
  O3     O3        0.911853920208520    0.766525642030538    0.590966379899798  0.0000
  O3     O3        0.577705913032570    0.192219866641000    0.597094526238672  0.0000
  O1     O1        0.129260592077628    0.862756990202513    0.359417677410964  0.0000
  O3     O3        0.367915613207532    0.091469795900333    0.336003340689008  0.0000
  O3     O3        0.019340786738987    0.991648916239712    0.532761575008753  0.0000
  O3     O3        0.470309116054601    0.973789421784023    0.529505744181909  0.0000
  O1     O1        0.975818382430987    0.944064973826978    0.277965996595873  0.0000
  O1     O1        0.524925137115453    0.003262038183716    0.280647025710796  0.0000
  O3     O3        0.969497902018423    0.966080562047032    0.767828757458499  0.0000
  O3     O3        0.521747030955809    0.977664399492300    0.768328461723632  0.0000
  O1     O1        0.575612690646396    0.219133825845562    0.086437560255279  0.0000
  O1     O1        0.924315208971509    0.738940702546211    0.078369952524021  0.0000
  O1     O1        0.378381726178126    0.112708837204574    0.844146326645824  0.0000
  O1     O1        0.123565441201959    0.877817157099573    0.846697588123964  0.0000
  O3     O3        0.403154830350249    0.752116498172051    0.848730855651022  0.0000
  O1     O1        0.079607552044370    0.221203493436849    0.837327059958686  0.0000
  O1     O1        0.632429041319183    0.878905206653692    0.097407878259038  0.0000
  O1     O1        0.866201779016192    0.078970157450361    0.099424423863945  0.0000
  O1     O1        0.478143208589618    0.947627133156377    0.027222414936399  0.0000
  O1     O1        0.018521180347735    0.015608820540606    0.023304310985209  0.0000
  O1     O1        0.154749057534746    0.513345723541609    0.316704694141527  0.0000
  O3     O3        0.345326272398949    0.425317555961678    0.303473441684594  0.0000
  O1     O1        0.839808633804461    0.441036076121256    0.616347283018027  0.0000
  O1     O1        0.650392048348710    0.516561951503314    0.618884386908970  0.0000
  O3     O3        0.235908981488589    0.211572234965627    0.249165313493299  0.0000
  O1     O1        0.269618294215518    0.742593446540463    0.262696836052352  0.0000
  O1     O1        0.729818800591378    0.207445072493190    0.682009873781412  0.0000
  O1     O1        0.761320415975998    0.750751691021265    0.676431552020883  0.0000
  O1     O1        0.115875434620641    0.338101474528770    0.091886763258751  0.0000
  O3     O3        0.383277062142771    0.624738031777856    0.086985328799816  0.0000
  O1     O1        0.857885873574088    0.224439135993571    0.844029980299381  0.0000
  O1     O1        0.638156987053939    0.730992397237349    0.844077064552139  0.0000
  O1     O1        0.880373718959640    0.610118039586752    0.835479549936678  0.0000
  O1     O1        0.611626716709146    0.343830286823377    0.839756619499040  0.0000
  O1     O1        0.137930297214098    0.742242024008590    0.102372145691223  0.0000
  O3     O3        0.356803698313250    0.223411825836823    0.099989740822144  0.0000
  O1     O1        0.657038377908663    0.523594154170461    0.063355340985845  0.0000
  O1     O1        0.842201933700835    0.434184786823774    0.061994091726012  0.0000
  O3     O3        0.335467373395745    0.457551761806584    0.884085286876849  0.0000
  O1     O1        0.152512179642409    0.532821760864326    0.876002196557527  0.0000
  O1     O1        0.727174910253398    0.207564839773168    0.998832315555940  0.0000
  O1     O1        0.770628445565851    0.753391765564249    0.999508540851811  0.0000
  O1     O1        0.229850693895428    0.212020505847366    0.927567577180981  0.0000
  O3     O3        0.267928047035796    0.751367292575711    0.951494606178783  0.0000
