data_c01223.vasp
_audit_creation_method             Generated by GULP
_audit_author_name                 Salvador R. G. Balestra
_symmetry_space_group_name_H-M     'P 1             '
_symmetry_Int_Tables_number        1

loop_
_symmetry_equiv_pos_site_id
_symmetry_equiv_pos_as_xyz
_cell_length_a                       17.4629
_cell_length_b                        7.8371
_cell_length_c                       10.2754
_cell_angle_alpha                   89.5601
_cell_angle_beta                    90.2490
_cell_angle_gamma                   87.9251

loop_
_atom_site_label
_atom_site_type_symbol
_atom_site_fract_x
_atom_site_fract_y
_atom_site_fract_z
_atom_site_charge
  Ge     Ge        0.052090000000021    0.000000000000000    0.372269999999958  0.0000
  Ge     Ge        0.446295540225100    0.946217029030702    0.409622605062794  0.0000
  Ge     Ge        0.943454988177161    0.949277625608801    0.619340477976708  0.0000
  Ge     Ge        0.951979694593008    0.934579608155067    0.114841951869846  0.0000
  Ge     Ge        0.056553645043111    0.999952030236806    0.862295720193589  0.0000
  Ge     Ge        0.149597726321310    0.313656835829029    0.300636178994383  0.0000
  Ge     Ge        0.358689046221935    0.625977014785681    0.300643904622899  0.0000
  Ge     Ge        0.821821822946796    0.237963661174566    0.734650043011261  0.0000
  Ge     Ge        0.663888375972938    0.718900850939332    0.738807677593678  0.0000
  Ge     Ge        0.847268773834403    0.639297934058441    0.736865025351947  0.0000
  Ge     Ge        0.638059247687347    0.317385630684086    0.739520407503292  0.0000
  Ge     Ge        0.175066298876023    0.713074780725147    0.297201654072711  0.0000
  Ge     Ge        0.642064369400732    0.310826679982411    0.052985916686686  0.0000
  Ge     Ge        0.850474116331458    0.626106347207529    0.055517953703151  0.0000
  Ge     Ge        0.333718632348525    0.228755490257418    0.989909658010638  0.0000
  Ge     Ge        0.177732939304222    0.711594663328901    0.982468913004416  0.0000
  Ge     Ge        0.361875858871769    0.629382973814552    0.988803670348944  0.0000
  Ge     Ge        0.150595272002136    0.308196911862799    0.983631306888269  0.0000
  Ge     Ge        0.668254371117392    0.713137667157948    0.056279668502697  0.0000
  Ge     Ge        0.825454175146570    0.225937992620657    0.048395540022145  0.0000
  Si     Si        0.545881176837277    0.007131013569116    0.662416319571996  0.0000
  Si     Si        0.553951714093211    0.001670544532518    0.165359872967796  0.0000
  Si     Si        0.454138685148651    0.939653305736516    0.916182145127524  0.0000
  Si     Si        0.328920062276258    0.233897736370849    0.298816116985295  0.0000
  O1     O1        0.087224456015551    0.199969564087859    0.392054168569132  0.0000
  O1     O1        0.419457483996904    0.739572256749724    0.395661862420893  0.0000
  O1     O1        0.867348315998927    0.089843634229605    0.638401775663973  0.0000
  O3     O3        0.615208404038477    0.869196526188464    0.642568601019986  0.0000
  O1     O1        0.915268392914769    0.746659261088092    0.652985659377035  0.0000
  O3     O3        0.575528193540276    0.197382046675203    0.648969841599286  0.0000
  O1     O1        0.127328316665571    0.854969303484535    0.395362517282692  0.0000
  O3     O3        0.369234174608889    0.086119801509436    0.384920766877087  0.0000
  O1     O1        0.972259035017507    0.959954070444245    0.458774176010226  0.0000
  O3     O3        0.475849164918884    0.975985821253284    0.568017289349164  0.0000
  O1     O1        0.027748079353242    0.980534067414638    0.209226087904014  0.0000
  O3     O3        0.522108856073557    0.989562813592586    0.310037119366415  0.0000
  O1     O1        0.024466410868466    0.000116767751826    0.703946978004859  0.0000
  O2     O2        0.519330317824819    0.979771431488012    0.812711818279912  0.0000
  O3     O3        0.578598295275351    0.194511842389256    0.142616057819434  0.0000
  O1     O1        0.917591702114015    0.733661480337936    0.140583596841245  0.0000
  O3     O3        0.383265085603718    0.075079003531400    0.902735937391036  0.0000
  O1     O1        0.134262344494978    0.861450873310692    0.883075132166513  0.0000
  O3     O3        0.424787563245532    0.749763743835811    0.898760280504394  0.0000
  O1     O1        0.083363628429830    0.203672923420914    0.897226696201667  0.0000
  O3     O3        0.625337260426263    0.868911229031374    0.151201126501703  0.0000
  O1     O1        0.876075033689087    0.078154153943466    0.138390585788182  0.0000
  O2     O2        0.487725158567740    0.953626097240405    0.062650001742913  0.0000
  O1     O1        0.980467402428925    0.940394219986714    0.954296586040192  0.0000
  O1     O1        0.157166885361630    0.513143449084625    0.360108196616309  0.0000
  O3     O3        0.344921191516816    0.420462022195934    0.357455341334851  0.0000
  O1     O1        0.835603997751800    0.439751861089711    0.673666445644946  0.0000
  O1     O1        0.647008207219099    0.518512943772507    0.677522655506190  0.0000
  O3     O3        0.238523471663041    0.205879111874224    0.296047188301900  0.0000
  O1     O1        0.271916801900407    0.736847184573459    0.296953486262644  0.0000
  O1     O1        0.725217099936152    0.207973754003566    0.740935772141961  0.0000
  O1     O1        0.760475987486367    0.751711015318377    0.732341364778156  0.0000
  O1     O1        0.119452920228714    0.325157358122224    0.141357518367319  0.0000
  O1     O1        0.394827092263535    0.615420764721676    0.146404434612829  0.0000
  O1     O1        0.858032709965247    0.216894138599901    0.890128482320756  0.0000
  O1     O1        0.635674553057395    0.725664937513246    0.898704971448857  0.0000
  O1     O1        0.876835571299288    0.609997616100546    0.894630788105096  0.0000
  O1     O1        0.607419713323735    0.336550398373772    0.897358743581964  0.0000
  O1     O1        0.142471015310063    0.728086044660976    0.138343150166016  0.0000
  O3     O3        0.361052695268902    0.226779067037197    0.152245994813443  0.0000
  O1     O1        0.652320560102230    0.510581026826250    0.116143190457818  0.0000
  O1     O1        0.840038990113331    0.424729765806694    0.114249164542129  0.0000
  O1     O1        0.353291168889817    0.428487382817495    0.928395274933943  0.0000
  O1     O1        0.162134076394249    0.510205406684172    0.923798575960819  0.0000
  O1     O1        0.728532062295615    0.199003383957589    0.047827802693817  0.0000
  O1     O1        0.764786589995416    0.742476090285156    0.058314465662612  0.0000
  O1     O1        0.237780039188563    0.196861497513433    0.977637765303791  0.0000
  O1     O1        0.274659422448842    0.737393312226310    0.989406202964485  0.0000
