data_c01268.vasp
_audit_creation_method             Generated by GULP
_audit_author_name                 Salvador R. G. Balestra
_symmetry_space_group_name_H-M     'P 1             '
_symmetry_Int_Tables_number        1

loop_
_symmetry_equiv_pos_site_id
_symmetry_equiv_pos_as_xyz
_cell_length_a                       17.5058
_cell_length_b                        7.8414
_cell_length_c                       10.1278
_cell_angle_alpha                   89.0232
_cell_angle_beta                    91.0888
_cell_angle_gamma                   87.9226

loop_
_atom_site_label
_atom_site_type_symbol
_atom_site_fract_x
_atom_site_fract_y
_atom_site_fract_z
_atom_site_charge
  Ge     Ge        0.052090000000021    0.000000000000000    0.372269999999958  0.0000
  Ge     Ge        0.446000216769424    0.948819243754695    0.362327079056072  0.0000
  Ge     Ge        0.549575225393658    0.019518476100849    0.111743663121816  0.0000
  Ge     Ge        0.943466867268254    0.954486903378213    0.116340128521021  0.0000
  Ge     Ge        0.443541623355558    0.959739085041979    0.855738174608905  0.0000
  Ge     Ge        0.042611043026867    0.027898996045347    0.859749472739135  0.0000
  Ge     Ge        0.145837401546093    0.315196242909122    0.251067560814859  0.0000
  Ge     Ge        0.355560921145377    0.631661226693230    0.250325139017474  0.0000
  Ge     Ge        0.826975905480005    0.253474481058269    0.681097521753571  0.0000
  Ge     Ge        0.844425924683060    0.651607441422714    0.669610135901666  0.0000
  Ge     Ge        0.641289435516805    0.322372404575542    0.680818098453170  0.0000
  Ge     Ge        0.171587572054633    0.714616373021018    0.259665856273229  0.0000
  Ge     Ge        0.639301044575733    0.333013588611224    0.996582751807028  0.0000
  Ge     Ge        0.852556387018298    0.644502334942294    0.993529176466732  0.0000
  Ge     Ge        0.320214714062463    0.246504559959958    0.931154748926807  0.0000
  Ge     Ge        0.167147880857773    0.737341595204216    0.941312229382505  0.0000
  Ge     Ge        0.348539090645314    0.648342468686153    0.933281366663697  0.0000
  Ge     Ge        0.140419662502117    0.334890713913126    0.928944981006371  0.0000
  Ge     Ge        0.671869727058661    0.730756698473741    0.992240206302884  0.0000
  Ge     Ge        0.822952362928403    0.245598114307327    0.999899821738344  0.0000
  Si     Si        0.941303734510583    0.962657693917019    0.610513052998872  0.0000
  Si     Si        0.548687032016482    0.009339747849604    0.613128688289848  0.0000
  Si     Si        0.664721323618719    0.714099532828929    0.675411938115428  0.0000
  Si     Si        0.325912854391157    0.238275157252677    0.245138612346285  0.0000
  O1     O1        0.082406994009116    0.201302818595673    0.339458228700277  0.0000
  O1     O1        0.418450165852686    0.742699638232005    0.345052050517248  0.0000
  O3     O3        0.874928973362258    0.106921195602205    0.583703908898764  0.0000
  O2     O2        0.614023297017818    0.859002990222349    0.594316759245066  0.0000
  O3     O3        0.906226031770037    0.779259184277606    0.584633871665092  0.0000
  O3     O3        0.583652259446775    0.192768841494031    0.586190372822335  0.0000
  O1     O1        0.128669770070724    0.860337955445904    0.360940329367534  0.0000
  O3     O3        0.369294012036858    0.088462396811174    0.328575110951915  0.0000
  O3     O3        0.017925471640307    0.994235059125898    0.532762230478057  0.0000
  O3     O3        0.474088300729428    0.976801352906181    0.526113757053553  0.0000
  O1     O1        0.975109838075308    0.946935487170391    0.277438466632542  0.0000
  O1     O1        0.525013180707818    0.991790291259172    0.273457512331201  0.0000
  O3     O3        0.964735723352068    0.975109450603917    0.765911972972553  0.0000
  O3     O3        0.522564076453097    0.002143504913656    0.765470505793858  0.0000
  O1     O1        0.574584822229782    0.227612305129198    0.088683197207680  0.0000
  O1     O1        0.922767212519416    0.749504074510489    0.073026834878609  0.0000
  O1     O1        0.370348409251990    0.110289023742805    0.833554521184137  0.0000
  O1     O1        0.117630329901351    0.882619517681587    0.843331497288754  0.0000
  O1     O1        0.408370160285518    0.760524636645357    0.834576272053213  0.0000
  O1     O1        0.075156505111022    0.230194512828722    0.834697530135080  0.0000
  O1     O1        0.627726116270573    0.891459672792678    0.073611507007267  0.0000
  O1     O1        0.864129321277690    0.088789534996744    0.099121968827017  0.0000
  O1     O1        0.471695477669253    0.967254807720624    0.019496741097320  0.0000
  O1     O1        0.016010836463091    0.026642238868763    0.022640719432257  0.0000
  O1     O1        0.154122987510200    0.512635924433019    0.317679763290303  0.0000
  O3     O3        0.344891431068057    0.422506763960342    0.304495279231130  0.0000
  O1     O1        0.841700749043827    0.450617767861202    0.608935566242493  0.0000
  O3     O3        0.648755388473825    0.528197201673138    0.616597908170260  0.0000
  O3     O3        0.235384054800717    0.211246382359462    0.248540976214891  0.0000
  O1     O1        0.268180539281804    0.737669434183001    0.255743324548465  0.0000
  O1     O1        0.730574415452556    0.224731268456013    0.684298875756572  0.0000
  O3     O3        0.753940645242675    0.750917557661955    0.663723308931176  0.0000
  O1     O1        0.113433411803160    0.343326971865059    0.091556999621210  0.0000
  O1     O1        0.386733240417631    0.629230624933778    0.091259028951131  0.0000
  O1     O1        0.859165585224971    0.236085478309957    0.842556894211047  0.0000
  O3     O3        0.642205051515941    0.715305207867812    0.828330369236658  0.0000
  O1     O1        0.874673934556855    0.623023555493643    0.830047941016488  0.0000
  O1     O1        0.605288168185848    0.338356258395764    0.835475935620513  0.0000
  O1     O1        0.134939966818264    0.745472189081035    0.101341135207722  0.0000
  O3     O3        0.353465021907395    0.234099528326432    0.094283871699659  0.0000
  O1     O1        0.651135851303163    0.533121098074971    0.057178456689311  0.0000
  O1     O1        0.841811348996653    0.444941410650306    0.060111182955019  0.0000
  O1     O1        0.333186920719079    0.451669654112295    0.872714245195725  0.0000
  O1     O1        0.152842341602464    0.538050582669646    0.875415718273603  0.0000
  O1     O1        0.726246969406887    0.223548367268964    0.993981379376025  0.0000
  O1     O1        0.767746640592022    0.762037963492352    0.001079701547890  0.0000
  O1     O1        0.224718852535061    0.212618339650267    0.925706154319994  0.0000
  O1     O1        0.263583863468860    0.766300325148398    0.944276362284224  0.0000
