data_c01212.vasp
_audit_creation_method             Generated by GULP
_audit_author_name                 Salvador R. G. Balestra
_symmetry_space_group_name_H-M     'P 1             '
_symmetry_Int_Tables_number        1

loop_
_symmetry_equiv_pos_site_id
_symmetry_equiv_pos_as_xyz
_cell_length_a                       17.6704
_cell_length_b                        7.8891
_cell_length_c                       10.3859
_cell_angle_alpha                   90.4003
_cell_angle_beta                    90.5291
_cell_angle_gamma                   89.5847

loop_
_atom_site_label
_atom_site_type_symbol
_atom_site_fract_x
_atom_site_fract_y
_atom_site_fract_z
_atom_site_charge
  Ge     Ge        0.052090000000021    0.000000000000000    0.372269999999958  0.0000
  Ge     Ge        0.451061431728808    0.958494085773585    0.357457720107900  0.0000
  Ge     Ge        0.947695838039103    0.993301923445671    0.625848132932554  0.0000
  Ge     Ge        0.940349805699902    0.007713123172898    0.126230419192721  0.0000
  Ge     Ge        0.446832999312745    0.973627898803472    0.865127517051145  0.0000
  Ge     Ge        0.148180769307353    0.310549648401223    0.257589143838993  0.0000
  Ge     Ge        0.351883324158682    0.649152253392903    0.254569053615159  0.0000
  Ge     Ge        0.842348370305236    0.303685950036318    0.703014521142884  0.0000
  Ge     Ge        0.646621770823223    0.669943753411777    0.689364111121983  0.0000
  Ge     Ge        0.827903355882317    0.709227240456751    0.691960997238971  0.0000
  Ge     Ge        0.660050584958118    0.263967727135625    0.696780952564805  0.0000
  Ge     Ge        0.171293342179906    0.712627358211091    0.259700138344521  0.0000
  Ge     Ge        0.328488176005147    0.245812013696543    0.248028875117370  0.0000
  Ge     Ge        0.658970318496120    0.284480628539471    0.007675496102554  0.0000
  Ge     Ge        0.825268977540504    0.722433091476205    0.003001818657701  0.0000
  Ge     Ge        0.324866484000964    0.257067913089582    0.934444491739722  0.0000
  Ge     Ge        0.163164691416202    0.713721376011274    0.946806162293111  0.0000
  Ge     Ge        0.345722156696834    0.659535481682224    0.940669629553957  0.0000
  Ge     Ge        0.142876831925979    0.311207720683081    0.943691396392713  0.0000
  Ge     Ge        0.843407213515317    0.320905684355032    0.017266792545409  0.0000
  Si     Si        0.548751268790374    0.978787791307126    0.613634120643208  0.0000
  Si     Si        0.552948266854071    0.990096826207362    0.110334739072956  0.0000
  Si     Si        0.045414909289492    0.997864177480815    0.880929891061946  0.0000
  Si     Si        0.645223700125874    0.680459138781900    0.993318927094203  0.0000
  O1     O1        0.083392024392604    0.201467025179224    0.344955554500013  0.0000
  O1     O1        0.417546328389393    0.756738230101200    0.345043113059716  0.0000
  O1     O1        0.902633705947869    0.185225436915401    0.610752354503216  0.0000
  O3     O3        0.585481444101997    0.792584768772293    0.597999562888379  0.0000
  O1     O1        0.882344207959389    0.836364281153378    0.598647577947242  0.0000
  O3     O3        0.611874120794985    0.123030044022142    0.598765931252037  0.0000
  O1     O1        0.124051209144083    0.856981541019918    0.352283143427208  0.0000
  O1     O1        0.378052561435711    0.097871792292954    0.332980040969420  0.0000
  O1     O1        0.024248546631045    0.980206168910088    0.529595170184698  0.0000
  O3     O3        0.481084326814119    0.999938057865583    0.513574722412906  0.0000
  O1     O1        0.973167270604630    0.964677129410038    0.277907694239976  0.0000
  O3     O3        0.527177212192212    0.984825771479609    0.257140423957783  0.0000
  O3     O3        0.975883859647947    0.969279664681525    0.785774847740521  0.0000
  O3     O3        0.518722190414676    0.001339060583038    0.759124048699142  0.0000
  O3     O3        0.609738925805062    0.147086680411056    0.102808971386174  0.0000
  O1     O1        0.865048826680805    0.877266204122030    0.094362873946489  0.0000
  O1     O1        0.374658292269813    0.118365384577183    0.841271541431274  0.0000
  O3     O3        0.111786753861888    0.859688365299870    0.858720725907529  0.0000
  O1     O1        0.407924722774316    0.776080380149823    0.852800058640125  0.0000
  O3     O3        0.078778305152979    0.185530917029658    0.860624939974152  0.0000
  O2     O2        0.591693386596114    0.810967654484622    0.070362979935617  0.0000
  O1     O1        0.905676643522480    0.210410426461942    0.112170926103006  0.0000
  O3     O3        0.479918265513717    0.015812702086191    0.020037507504475  0.0000
  O3     O3        0.016950248950754    0.973792782675417    0.026775672999101  0.0000
  O1     O1        0.159580918222453    0.510581874935458    0.318797538330939  0.0000
  O1     O1        0.342487253123664    0.447231103653537    0.309941739383790  0.0000
  O1     O1        0.835262335297691    0.502475755016588    0.640199521239437  0.0000
  O1     O1        0.650039866721522    0.465583506638300    0.634605747650993  0.0000
  O1     O1        0.233405471497383    0.203557738069290    0.255849955026547  0.0000
  O1     O1        0.266096843981412    0.754640929504198    0.259965814034487  0.0000
  O1     O1        0.754156103409508    0.211467953071949    0.702745219676667  0.0000
  O1     O1        0.733728497250548    0.763331289063973    0.683891801682274  0.0000
  O1     O1        0.115539197971302    0.323833515747820    0.101523012472733  0.0000
  O1     O1        0.379289739751416    0.648800405076833    0.096179687244740  0.0000
  O1     O1        0.873616826814501    0.311909883176783    0.860245994957007  0.0000
  O3     O3        0.614916954927087    0.663680875490701    0.847403289082883  0.0000
  O1     O1        0.859132560563113    0.722857528552617    0.849175144698796  0.0000
  O1     O1        0.627537692439025    0.263526781770997    0.852375985778081  0.0000
  O1     O1        0.136208520679269    0.716993432463993    0.105138006510309  0.0000
  O1     O1        0.356859671167267    0.248180187961489    0.091148458594661  0.0000
  O3     O3        0.645746069839281    0.495301664688528    0.056710689197350  0.0000
  O1     O1        0.842129225442066    0.527371265765745    0.069671097956545  0.0000
  O1     O1        0.336099226423909    0.460263250466912    0.877936467007141  0.0000
  O1     O1        0.147202048364689    0.512923368702082    0.884502712305156  0.0000
  O1     O1        0.753348504015652    0.239204837781256    0.020869267315772  0.0000
  O3     O3        0.728754048381256    0.757023458437116    0.990123233178069  0.0000
  O1     O1        0.229899280351838    0.213871684883160    0.934809241764945  0.0000
  O1     O1        0.257902525033058    0.757239191836510    0.941048254711268  0.0000
