data_c01218.vasp
_audit_creation_method             Generated by GULP
_audit_author_name                 Salvador R. G. Balestra
_symmetry_space_group_name_H-M     'P 1             '
_symmetry_Int_Tables_number        1

loop_
_symmetry_equiv_pos_site_id
_symmetry_equiv_pos_as_xyz
_cell_length_a                       17.5049
_cell_length_b                        7.8229
_cell_length_c                       10.2199
_cell_angle_alpha                   89.4975
_cell_angle_beta                    90.1171
_cell_angle_gamma                   88.4529

loop_
_atom_site_label
_atom_site_type_symbol
_atom_site_fract_x
_atom_site_fract_y
_atom_site_fract_z
_atom_site_charge
  Ge     Ge        0.052090000000021    0.000000000000000    0.372269999999958  0.0000
  Ge     Ge        0.450555109924902    0.947426926053044    0.326973228177284  0.0000
  Ge     Ge        0.945527271309944    0.956124005687846    0.627067878238869  0.0000
  Ge     Ge        0.943501790313943    0.954054139493666    0.121339462400768  0.0000
  Ge     Ge        0.444955401541246    0.957685738032386    0.815735153921740  0.0000
  Ge     Ge        0.144238611666036    0.315707228141290    0.253110751770640  0.0000
  Ge     Ge        0.355441338287172    0.632126284270363    0.250546305243482  0.0000
  Ge     Ge        0.824987407033814    0.251642538171015    0.690026850468620  0.0000
  Ge     Ge        0.667173930894551    0.722901610775416    0.684317407756191  0.0000
  Ge     Ge        0.641274176024624    0.323363463808579    0.684677550603134  0.0000
  Ge     Ge        0.173964800426028    0.716345191588674    0.257650049553919  0.0000
  Ge     Ge        0.325681814704053    0.229249954711453    0.247691099156634  0.0000
  Ge     Ge        0.640401147836979    0.325363132799889    0.002492674413985  0.0000
  Ge     Ge        0.845668571285709    0.647967631991407    0.002875663057477  0.0000
  Ge     Ge        0.323172155092365    0.241689358512178    0.929853311573264  0.0000
  Ge     Ge        0.166298760649752    0.727784802093103    0.941041301031978  0.0000
  Ge     Ge        0.349030758643766    0.646855177738029    0.933321572943818  0.0000
  Ge     Ge        0.141639966199389    0.326438519524368    0.934915490937521  0.0000
  Ge     Ge        0.664411208974867    0.728030490600752    0.002633624983532  0.0000
  Ge     Ge        0.822435385706707    0.243374150922370    0.006112205520328  0.0000
  Si     Si        0.553056429865925    0.012284488019565    0.571988673179816  0.0000
  Si     Si        0.544995189415060    0.016716106187312    0.070005475890635  0.0000
  Si     Si        0.046019030201859    0.017906573048025    0.876127805743967  0.0000
  Si     Si        0.845624828967126    0.645594510868472    0.690233337432646  0.0000
  O1     O1        0.077026526304272    0.206484409723965    0.338773357149723  0.0000
  O1     O1        0.420998102333436    0.741765177578648    0.341006125196597  0.0000
  O1     O1        0.876732963600507    0.111920398566368    0.595395710158524  0.0000
  O3     O3        0.626208517024694    0.887945978077799    0.594711142767226  0.0000
  O3     O3        0.906543578842097    0.755675873220766    0.611668306836161  0.0000
  O3     O3        0.574996285816585    0.206016812689787    0.600693299102677  0.0000
  O1     O1        0.129789926743711    0.865473609522311    0.353999398580352  0.0000
  O1     O1        0.373866915863926    0.085594006573880    0.346536428432448  0.0000
  O1     O1        0.023721274084274    0.981112755515538    0.532848184031612  0.0000
  O3     O3        0.527698328951195    0.994974368823454    0.421664257757376  0.0000
  O1     O1        0.974440883595239    0.945293207246878    0.280212725614021  0.0000
  O3     O3        0.475447829682593    0.978098360830601    0.163217056949757  0.0000
  O3     O3        0.973395011690656    0.975856757032332    0.789896710326465  0.0000
  O3     O3        0.480668711621168    0.957427761218435    0.657941133912615  0.0000
  O3     O3        0.576583700866828    0.205860348295898    0.091834671571116  0.0000
  O1     O1        0.916035842360537    0.751742631749904    0.081411856242166  0.0000
  O1     O1        0.369329597134409    0.099722651463275    0.828957841419081  0.0000
  O3     O3        0.114640806736598    0.879815959285938    0.852618280307357  0.0000
  O1     O1        0.414410162006485    0.754480239394629    0.842811981252671  0.0000
  O3     O3        0.076573495597792    0.207323718902704    0.848369056550614  0.0000
  O3     O3        0.613224292611561    0.876180423445024    0.092511934193765  0.0000
  O1     O1        0.867930342660479    0.096526712934088    0.105633543195231  0.0000
  O3     O3        0.518476328879300    0.009968368738048    0.918680644675827  0.0000
  O3     O3        0.021053720468000    0.013328463461174    0.028434192705408  0.0000
  O1     O1        0.159264439985373    0.513308305601932    0.318302513785119  0.0000
  O1     O1        0.342535055770087    0.430844205075329    0.308425404279335  0.0000
  O3     O3        0.837135986904449    0.458902759779660    0.630274307379382  0.0000
  O1     O1        0.647776441292077    0.526553187418435    0.619933632295010  0.0000
  O1     O1        0.229165416333063    0.198199852295204    0.251542849608179  0.0000
  O1     O1        0.270252050104539    0.748530020297767    0.252201087809365  0.0000
  O1     O1        0.728677905807681    0.218433921982281    0.682329334134004  0.0000
  O3     O3        0.764827294018698    0.749962469395383    0.687447016760200  0.0000
  O1     O1        0.114158734332839    0.349703902737107    0.095032894651033  0.0000
  O1     O1        0.383687407902305    0.622530814048446    0.089805902249806  0.0000
  O1     O1        0.855843064427255    0.225317321018226    0.848702036997651  0.0000
  O1     O1        0.634798308495570    0.735073308391110    0.842048984301672  0.0000
  O3     O3        0.870744575901848    0.619926417279862    0.840591064609679  0.0000
  O1     O1        0.611145713786247    0.349912954977154    0.842513101325166  0.0000
  O1     O1        0.137417360302767    0.733492482710764    0.101425774119854  0.0000
  O1     O1        0.356312240029968    0.219160911957457    0.087633870296425  0.0000
  O1     O1        0.649304299276062    0.525428297731639    0.065299665582234  0.0000
  O1     O1        0.835667643008196    0.446344951679281    0.065304224700095  0.0000
  O1     O1        0.336001580477289    0.446823205433256    0.872425900832727  0.0000
  O1     O1        0.150371007476165    0.529051446867556    0.874094511345614  0.0000
  O1     O1        0.725892240289802    0.212552336084280    0.001749084414668  0.0000
  O1     O1        0.760588726013902    0.763172389707987    0.012168275858292  0.0000
  O1     O1        0.226632274570038    0.211287439653490    0.931690998507862  0.0000
  O1     O1        0.262878371853290    0.759953890003928    0.935061969412706  0.0000
