data_c01270.vasp
_audit_creation_method             Generated by GULP
_audit_author_name                 Salvador R. G. Balestra
_symmetry_space_group_name_H-M     'P 1             '
_symmetry_Int_Tables_number        1

loop_
_symmetry_equiv_pos_site_id
_symmetry_equiv_pos_as_xyz
_cell_length_a                       17.7493
_cell_length_b                        7.8131
_cell_length_c                       10.2198
_cell_angle_alpha                   90.2229
_cell_angle_beta                    90.5469
_cell_angle_gamma                   90.2926

loop_
_atom_site_label
_atom_site_type_symbol
_atom_site_fract_x
_atom_site_fract_y
_atom_site_fract_z
_atom_site_charge
  Ge     Ge        0.052090000000021    0.000000000000000    0.372269999999958  0.0000
  Ge     Ge        0.449184163807201    0.034063925047850    0.374765641116354  0.0000
  Ge     Ge        0.546725831419707    0.021421043450571    0.110467028321486  0.0000
  Ge     Ge        0.950853624328719    0.012847562765533    0.110209652685895  0.0000
  Ge     Ge        0.444385569589378    0.030368934430786    0.849861317216600  0.0000
  Ge     Ge        0.050443544728869    0.998722646953942    0.851019764290899  0.0000
  Ge     Ge        0.172385142633965    0.276975833232065    0.287776065010006  0.0000
  Ge     Ge        0.328170572405852    0.757294976541510    0.287169295254216  0.0000
  Ge     Ge        0.829552715631567    0.289953042590087    0.722477786763180  0.0000
  Ge     Ge        0.841698279237648    0.692777749355926    0.710747339666451  0.0000
  Ge     Ge        0.149175052117776    0.686449985242378    0.289224660455503  0.0000
  Ge     Ge        0.351588273205495    0.346342337652226    0.287976679838383  0.0000
  Ge     Ge        0.648801845406241    0.335215967944949    0.037766550982651  0.0000
  Ge     Ge        0.848174954995771    0.698348899263766    0.031703931031333  0.0000
  Ge     Ge        0.351854317017700    0.345660507370169    0.970513942562679  0.0000
  Ge     Ge        0.144453148614117    0.684381942621786    0.971491858083858  0.0000
  Ge     Ge        0.324469969031322    0.756053950882458    0.969338081938542  0.0000
  Ge     Ge        0.171702948522384    0.275338907535984    0.969884691386307  0.0000
  Ge     Ge        0.669937950144345    0.745476739043724    0.035456350065537  0.0000
  Ge     Ge        0.827674119265719    0.289070973832224    0.040384734927227  0.0000
  Si     Si        0.939935753234288    0.999536069322248    0.604846599186714  0.0000
  Si     Si        0.556755863792874    0.016431032464004    0.614525084759194  0.0000
  Si     Si        0.662190333551563    0.722545051792544    0.723741936564198  0.0000
  Si     Si        0.649484471199916    0.326837398538762    0.729202105742879  0.0000
  O1     O1        0.123067593067789    0.148094311993479    0.392597726855390  0.0000
  O1     O1        0.377810224534614    0.886975020881264    0.393045471735343  0.0000
  O3     O3        0.875236675154898    0.135952319361854    0.634082062072777  0.0000
  O2     O2        0.611151631305789    0.854903625122612    0.640902104741946  0.0000
  O3     O3        0.901901329167621    0.813996702850986    0.618017873124529  0.0000
  O2     O2        0.597412439649557    0.199106197042086    0.642188573364393  0.0000
  O1     O1        0.088253060202429    0.798538508897523    0.387157681629291  0.0000
  O1     O1        0.413434299455027    0.236139671615413    0.386627947246724  0.0000
  O3     O3        0.970121585399260    0.026170466632290    0.458759497838683  0.0000
  O3     O3        0.531286053928140    0.008616217129315    0.464102878766842  0.0000
  O1     O1        0.025947523934597    0.033987648103970    0.211079387404656  0.0000
  O1     O1        0.474847825726997    0.995131822699711    0.214659360219279  0.0000
  O3     O3        0.015161495304447    0.017808496729188    0.693030487659795  0.0000
  O3     O3        0.478619842941679    0.007556397855089    0.692350799827606  0.0000
  O1     O1        0.583302088651207    0.225547400401381    0.124632876806439  0.0000
  O1     O1        0.913978986798777    0.809142224240161    0.120051416169864  0.0000
  O1     O1        0.415650584987113    0.236941341280313    0.877991963965917  0.0000
  O1     O1        0.078650191991445    0.792215458486521    0.880680410405153  0.0000
  O1     O1        0.367917121095598    0.896966087792079    0.867404765683303  0.0000
  O1     O1        0.126744430316716    0.132757726004175    0.868556654262948  0.0000
  O1     O1        0.619893163704373    0.879113630477111    0.131194788985454  0.0000
  O1     O1        0.879761632581760    0.157817774463281    0.137188108057579  0.0000
  O1     O1        0.515180199287774    0.975472258930462    0.954663348585183  0.0000
  O1     O1        0.979590496451585    0.055412504992042    0.952992833039828  0.0000
  O1     O1        0.161804655776411    0.483965368643373    0.344846087347025  0.0000
  O1     O1        0.339273388525933    0.549903223359359    0.342143119772059  0.0000
  O1     O1        0.845442041012905    0.486651373513875    0.654418356985475  0.0000
  O2     O2        0.648202275569066    0.524111872559593    0.676110329018691  0.0000
  O1     O1        0.267095118560128    0.234988546839867    0.287431373373376  0.0000
  O1     O1        0.233284743454894    0.798565518597605    0.287575624319679  0.0000
  O3     O3        0.733359285465080    0.254245675961615    0.724638273161087  0.0000
  O3     O3        0.749626220371239    0.766925373134655    0.704425316169564  0.0000
  O1     O1        0.140271948591978    0.261469703011858    0.128349992126668  0.0000
  O1     O1        0.357952461352359    0.772921497628722    0.127538113020661  0.0000
  O1     O1        0.859474393843719    0.285642135447033    0.881010121321786  0.0000
  O3     O3        0.639269440678549    0.739481592387930    0.873252342640728  0.0000
  O1     O1        0.873836861446229    0.698324542443217    0.868958642815375  0.0000
  O3     O3        0.618268255547409    0.325703852498069    0.874874335275067  0.0000
  O1     O1        0.114662069552042    0.678042135569317    0.131256405644202  0.0000
  O1     O1        0.384384725601207    0.350149492513526    0.129943852051727  0.0000
  O1     O1        0.658645327115797    0.539357818695027    0.092496961344181  0.0000
  O1     O1        0.837779615905601    0.497787543910952    0.093088955997551  0.0000
  O1     O1        0.339672729501421    0.549537103107439    0.915027383066323  0.0000
  O1     O1        0.155168773380747    0.480342280480440    0.914172143283815  0.0000
  O1     O1        0.734446417280706    0.233641895330129    0.044651823439953  0.0000
  O1     O1        0.762805975820112    0.802036533708788    0.037545649615841  0.0000
  O1     O1        0.266737600354210    0.238761321402853    0.969095110494785  0.0000
  O1     O1        0.229213425016069    0.792054940854753    0.968686946989188  0.0000
