data_c01224.vasp
_audit_creation_method             Generated by GULP
_audit_author_name                 Salvador R. G. Balestra
_symmetry_space_group_name_H-M     'P 1             '
_symmetry_Int_Tables_number        1

loop_
_symmetry_equiv_pos_site_id
_symmetry_equiv_pos_as_xyz
_cell_length_a                       17.6829
_cell_length_b                        7.8601
_cell_length_c                       10.3958
_cell_angle_alpha                   90.8814
_cell_angle_beta                    89.4993
_cell_angle_gamma                   89.7562

loop_
_atom_site_label
_atom_site_type_symbol
_atom_site_fract_x
_atom_site_fract_y
_atom_site_fract_z
_atom_site_charge
  Ge     Ge        0.052090000000021    0.000000000000000    0.372269999999958  0.0000
  Ge     Ge        0.445302890676291    0.031536763298558    0.374893545473020  0.0000
  Ge     Ge        0.946369637843062    0.982207431356617    0.625897099221258  0.0000
  Ge     Ge        0.940809989785925    0.989263075637467    0.131948133272891  0.0000
  Ge     Ge        0.049827288624993    0.991762031239664    0.882007205447519  0.0000
  Ge     Ge        0.167964626154983    0.292055915818346    0.263635953174486  0.0000
  Ge     Ge        0.327129875041430    0.747038055099634    0.264027785298504  0.0000
  Ge     Ge        0.824582460871446    0.266636627200112    0.701274045370317  0.0000
  Ge     Ge        0.661368137517565    0.725857266516636    0.703736723149200  0.0000
  Ge     Ge        0.843140469271234    0.673269948613644    0.701808718056532  0.0000
  Ge     Ge        0.642650558379146    0.320687490339766    0.704393195578368  0.0000
  Ge     Ge        0.349588722450548    0.343826719644653    0.274187862473366  0.0000
  Ge     Ge        0.640195682741782    0.328739805317291    0.015761701978622  0.0000
  Ge     Ge        0.845582611917325    0.674778713902124    0.015185845110583  0.0000
  Ge     Ge        0.353984848723988    0.322464383393856    0.960627390627114  0.0000
  Ge     Ge        0.154674171065935    0.679060234368791    0.946361206324472  0.0000
  Ge     Ge        0.335525284528630    0.729250784790885    0.951277923319152  0.0000
  Ge     Ge        0.172037522827252    0.272712933245975    0.952457474978122  0.0000
  Ge     Ge        0.663276865880145    0.732583652548163    0.016171572017732  0.0000
  Ge     Ge        0.822472720890363    0.268833979738874    0.012476910407814  0.0000
  Si     Si        0.548081074120674    0.009497552171180    0.623359410226757  0.0000
  Si     Si        0.550764877826652    0.018095325235325    0.123643017211607  0.0000
  Si     Si        0.451420185967103    0.008774188745100    0.876591193225828  0.0000
  Si     Si        0.150449069815383    0.691221891209489    0.253191697687944  0.0000
  O1     O1        0.114944533178632    0.163652484385129    0.359762249989372  0.0000
  O1     O1        0.368586925934623    0.901552062483232    0.354195787598659  0.0000
  O1     O1        0.876706435763445    0.132789909729180    0.604203962172377  0.0000
  O3     O3        0.612302023936917    0.865593861279794    0.607981469304951  0.0000
  O1     O1        0.905387554510027    0.785702890614569    0.609542338384544  0.0000
  O3     O3        0.583945542661032    0.195345198741326    0.609701082295685  0.0000
  O3     O3        0.090054169440694    0.803156102707947    0.331899087116516  0.0000
  O1     O1        0.412781326962170    0.235503722293637    0.367263950166383  0.0000
  O1     O1        0.024708681685952    0.999385773019096    0.531412535330096  0.0000
  O3     O3        0.481435366103765    0.984879147148901    0.523624158106018  0.0000
  O1     O1        0.970293106294076    0.022907515769821    0.287170420017795  0.0000
  O3     O3        0.515363887368382    0.989219049949344    0.262805074771334  0.0000
  O1     O1        0.975353404739990    0.013945071834142    0.782929271790790  0.0000
  O2     O2        0.516035116453969    0.988182867829036    0.768897121061126  0.0000
  O3     O3        0.578378702840832    0.211126676113163    0.108301763835854  0.0000
  O1     O1        0.909739825449698    0.784775208302364    0.105217307622729  0.0000
  O3     O3        0.415920105756861    0.196280013673883    0.871438163008493  0.0000
  O1     O1        0.089272124543824    0.791452042781231    0.863588147264237  0.0000
  O3     O3        0.387044587538887    0.867729603464043    0.858001694560166  0.0000
  O1     O1        0.122003760002874    0.135635035478546    0.858293322872103  0.0000
  O3     O3        0.620425161905299    0.888803912329803    0.108742928606531  0.0000
  O1     O1        0.866207906420457    0.124355718938747    0.106618859816530  0.0000
  O2     O2        0.487591429905599    0.974902162741203    0.016327051904721  0.0000
  O1     O1        0.017938599168867    0.028947750763300    0.036733398680573  0.0000
  O3     O3        0.157988066866024    0.504510328933020    0.311963715129936  0.0000
  O1     O1        0.342681163316531    0.549648869846549    0.328202301287494  0.0000
  O1     O1        0.834179774041629    0.470286203699419    0.644408449958660  0.0000
  O1     O1        0.649409462069744    0.521371599187645    0.644338912243786  0.0000
  O1     O1        0.262437069682306    0.246786759421066    0.276117307710703  0.0000
  O3     O3        0.230867676763482    0.786737503385958    0.257272603652589  0.0000
  O1     O1        0.729734999440837    0.221961224061535    0.704060647549868  0.0000
  O1     O1        0.755951071527957    0.772892246419302    0.701523646348443  0.0000
  O1     O1        0.138577418978384    0.265325044018353    0.108588413219102  0.0000
  O1     O1        0.361607957005049    0.743775998401091    0.109450387825238  0.0000
  O1     O1        0.856443461809174    0.257550613909397    0.857265810510384  0.0000
  O1     O1        0.631287522840219    0.732521282798062    0.861088889421462  0.0000
  O1     O1        0.875865907943554    0.670309091447948    0.857354950244442  0.0000
  O1     O1        0.608984507916929    0.334952978495375    0.859743641712533  0.0000
  O3     O3        0.124694895444054    0.673300723539938    0.105964262015277  0.0000
  O1     O1        0.382437835035819    0.336444764133733    0.117594336015019  0.0000
  O1     O1        0.646351775097585    0.532261625661133    0.076127671527536  0.0000
  O1     O1        0.837295732555888    0.472218594934702    0.071105929896479  0.0000
  O1     O1        0.349612702162695    0.522432454613944    0.898161413414880  0.0000
  O1     O1        0.162200937917534    0.474463962015949    0.891510169089307  0.0000
  O1     O1        0.727076849722729    0.231717455414294    0.012018559623209  0.0000
  O1     O1        0.758243000693776    0.772255152921301    0.018297464287635  0.0000
  O1     O1        0.266838147617134    0.226883149157722    0.956910413459173  0.0000
  O1     O1        0.241258085568943    0.777160464039419    0.938334158917399  0.0000
