data_c01238.vasp
_audit_creation_method             Generated by GULP
_audit_author_name                 Salvador R. G. Balestra
_symmetry_space_group_name_H-M     'P 1             '
_symmetry_Int_Tables_number        1

loop_
_symmetry_equiv_pos_site_id
_symmetry_equiv_pos_as_xyz
_cell_length_a                       17.4929
_cell_length_b                        7.8171
_cell_length_c                       10.2623
_cell_angle_alpha                   89.9998
_cell_angle_beta                    89.9999
_cell_angle_gamma                   91.1651

loop_
_atom_site_label
_atom_site_type_symbol
_atom_site_fract_x
_atom_site_fract_y
_atom_site_fract_z
_atom_site_charge
  Ge     Ge        0.052090000000021    0.000000000000000    0.372269999999958  0.0000
  Ge     Ge        0.452426799689354    0.044854440422888    0.372267958334935  0.0000
  Ge     Ge        0.561013371798835    0.993661754184446    0.123662956440546  0.0000
  Ge     Ge        0.943501991096597    0.051197521994309    0.123666373054390  0.0000
  Ge     Ge        0.454474241465159    0.055464053399646    0.870940021883756  0.0000
  Ge     Ge        0.050042080373114    0.989400326292461    0.870941389546019  0.0000
  Ge     Ge        0.176553674476923    0.280341206236242    0.261879583313480  0.0000
  Ge     Ge        0.327963371589618    0.764513969268245    0.261880676243988  0.0000
  Ge     Ge        0.853349768614990    0.357062529725663    0.692952562754335  0.0000
  Ge     Ge        0.651167353971437    0.687795084383218    0.692947634205462  0.0000
  Ge     Ge        0.833607377057356    0.763016225085281    0.695454283563517  0.0000
  Ge     Ge        0.670908691987936    0.281843540639560    0.695454674653517  0.0000
  Ge     Ge        0.145440808795534    0.683024198688506    0.257309397170339  0.0000
  Ge     Ge        0.359076000934366    0.361831534419412    0.257306185942590  0.0000
  Ge     Ge        0.675695306321029    0.288456214790332    0.009837047002912  0.0000
  Ge     Ge        0.828818642226805    0.756404924535476    0.009838405794215  0.0000
  Ge     Ge        0.354963174863516    0.365965715209434    0.940344820757806  0.0000
  Ge     Ge        0.149553042394391    0.678898080551115    0.940348410378951  0.0000
  Ge     Ge        0.329216427702516    0.769889363888704    0.946288472145746  0.0000
  Ge     Ge        0.175300063427872    0.274973955933372    0.946287051038969  0.0000
  Si     Si        0.949999135184622    0.048561428567230    0.621258659531370  0.0000
  Si     Si        0.554517765600003    0.996298345794627    0.621257634448865  0.0000
  Si     Si        0.650068369566894    0.682613768558273    0.002373396598665  0.0000
  Si     Si        0.854446506358259    0.362245275498188    0.002375599875147  0.0000
  O1     O1        0.130966581891408    0.130554527848410    0.356814261082576  0.0000
  O1     O1        0.373550598455590    0.914298066265385    0.356816921109796  0.0000
  O3     O3        0.917227007820730    0.237962376499546    0.603797637782968  0.0000
  O3     O3        0.587288710974740    0.806896401622758    0.603797047756343  0.0000
  O3     O3        0.883202445201650    0.906815466031544    0.597627627267207  0.0000
  O3     O3        0.621315432954167    0.138042184160313    0.597627777224749  0.0000
  O1     O1        0.076844591085225    0.793308418465385    0.339957080287431  0.0000
  O1     O1        0.427672617061026    0.251545323980940    0.339950891344165  0.0000
  O3     O3        0.023042573812533    0.014411508966997    0.534204246381925  0.0000
  O3     O3        0.481474977785224    0.030449679759586    0.534202066592249  0.0000
  O1     O1        0.975482338449428    0.062515005202996    0.281178101694967  0.0000
  O1     O1        0.529033749441953    0.982336782393864    0.281175041486926  0.0000
  O3     O3        0.973803361842373    0.032250914679669    0.773138940055653  0.0000
  O3     O3        0.530712680274107    0.012608908155328    0.773137647091064  0.0000
  O1     O1        0.634819628662521    0.142005186527482    0.112091839307005  0.0000
  O1     O1        0.869696373464013    0.902852201885186    0.112092966497740  0.0000
  O1     O1        0.419006170609391    0.256602212283178    0.847622682939193  0.0000
  O1     O1        0.085510183498663    0.788262100791393    0.847626320919375  0.0000
  O1     O1        0.380940230151115    0.908447428848733    0.851466584774143  0.0000
  O1     O1        0.123575561805245    0.136417780664327    0.851465315712892  0.0000
  O3     O3        0.588695458635637    0.789515058739887    0.080910328070604  0.0000
  O3     O3        0.915815911941958    0.255345652144529    0.080922863827587  0.0000
  O1     O1        0.485293168443846    0.052850579365262    0.030431061949787  0.0000
  O1     O1        0.019223134418906    0.992017748427175    0.030432485625821  0.0000
  O1     O1        0.158801584593346    0.482518948095542    0.320267117766166  0.0000
  O1     O1        0.345715414236087    0.562335074911807    0.320266488370412  0.0000
  O1     O1        0.847069042044590    0.559952099955089    0.633827264508079  0.0000
  O1     O1        0.657447231143953    0.484905577968356    0.633822330257416  0.0000
  O1     O1        0.273302087522642    0.249106486885720    0.262476719353536  0.0000
  O1     O1        0.231214970922768    0.795748208500565    0.262478868962603  0.0000
  O1     O1        0.767301156711663    0.247753717026539    0.689719699060128  0.0000
  O1     O1        0.737215120076237    0.797106828731840    0.689713093070767  0.0000
  O1     O1        0.142961584580372    0.261056814779497    0.104625722272579  0.0000
  O1     O1        0.361555439830870    0.783804401489710    0.104626781092506  0.0000
  O3     O3        0.881689952544280    0.384535380778718    0.853558211324026  0.0000
  O3     O3        0.622831058181277    0.660314709382237    0.853554496974269  0.0000
  O1     O1        0.863801221864273    0.782100897066951    0.854722974469282  0.0000
  O1     O1        0.640712030672383    0.262759377504540    0.854722293862567  0.0000
  O1     O1        0.117730916687092    0.657626012136364    0.098415394483284  0.0000
  O1     O1        0.386784404340945    0.387236997407439    0.098412179191755  0.0000
  O3     O3        0.658510989306371    0.495024924128833    0.063877670759327  0.0000
  O3     O3        0.846002451110917    0.549834800453031    0.063876500141002  0.0000
  O1     O1        0.340180538747377    0.566336443381112    0.882953959208505  0.0000
  O1     O1        0.164335879358169    0.478528829453544    0.882955543149506  0.0000
  O3     O3        0.773415927857591    0.260224837327369    0.004519978655756  0.0000
  O3     O3        0.731097960803043    0.784637855631006    0.004525591273523  0.0000
  O1     O1        0.271782741545528    0.242082209240940    0.945746400440112  0.0000
  O1     O1        0.232733644060449    0.802780660065751    0.945750602812687  0.0000
