data_c01215.vasp
_audit_creation_method             Generated by GULP
_audit_author_name                 Salvador R. G. Balestra
_symmetry_space_group_name_H-M     'P 1             '
_symmetry_Int_Tables_number        1

loop_
_symmetry_equiv_pos_site_id
_symmetry_equiv_pos_as_xyz
_cell_length_a                       17.5209
_cell_length_b                        7.8251
_cell_length_c                       10.2308
_cell_angle_alpha                   88.9539
_cell_angle_beta                    90.4418
_cell_angle_gamma                   91.4522

loop_
_atom_site_label
_atom_site_type_symbol
_atom_site_fract_x
_atom_site_fract_y
_atom_site_fract_z
_atom_site_charge
  Ge     Ge        0.052090000000021    0.000000000000000    0.372269999999958  0.0000
  Ge     Ge        0.443099403905262    0.057842282954077    0.355333416916579  0.0000
  Ge     Ge        0.945936559122281    0.069011538506818    0.619689496359946  0.0000
  Ge     Ge        0.941474781551304    0.065605488147221    0.122644998338299  0.0000
  Ge     Ge        0.446513798102492    0.072864241401932    0.861143344335956  0.0000
  Ge     Ge        0.172249006678977    0.287707717234034    0.254724729557889  0.0000
  Ge     Ge        0.325073220845586    0.763386848791691    0.252458372765760  0.0000
  Ge     Ge        0.845259988368150    0.380963918488783    0.686348566431428  0.0000
  Ge     Ge        0.638346558238614    0.707535860681473    0.682906707791929  0.0000
  Ge     Ge        0.820630692756197    0.783299859762743    0.688013549717978  0.0000
  Ge     Ge        0.663019198485971    0.304302361105310    0.686546692741542  0.0000
  Ge     Ge        0.142220124890246    0.685932337610447    0.258875580844046  0.0000
  Ge     Ge        0.664209065459680    0.297898490005062    0.004657766477080  0.0000
  Ge     Ge        0.819797618802478    0.781297471022529    0.005156110025811  0.0000
  Ge     Ge        0.343175651054106    0.378621261562796    0.928072552402146  0.0000
  Ge     Ge        0.140393608400563    0.701781799979441    0.940990179764979  0.0000
  Ge     Ge        0.322353580197582    0.782860206035350    0.937875721842586  0.0000
  Ge     Ge        0.162602095986593    0.298283599034405    0.937253705230237  0.0000
  Ge     Ge        0.637231257140372    0.701232900761884    0.999413731168598  0.0000
  Ge     Ge        0.846644472262443    0.378800106911185    0.004961562353964  0.0000
  Si     Si        0.545964883748012    0.021337559406180    0.607710772018973  0.0000
  Si     Si        0.548445354378705    0.009057338068613    0.113358170854188  0.0000
  Si     Si        0.042561958994102    0.009740229286018    0.874838547679290  0.0000
  Si     Si        0.349538711485416    0.368509835318184    0.240296091954604  0.0000
  O1     O1        0.132177787706308    0.125638337228519    0.345356552344806  0.0000
  O1     O1        0.372519502055409    0.904152197210756    0.352001214009178  0.0000
  O1     O1        0.910703105671717    0.270199637200089    0.599501446619479  0.0000
  O3     O3        0.576169121317537    0.831003605678341    0.590228355104490  0.0000
  O1     O1        0.872005334726215    0.925211676143934    0.592837296412678  0.0000
  O3     O3        0.614681859684212    0.159652666336993    0.588561655982667  0.0000
  O1     O1        0.075988474440999    0.792380117296078    0.346745730380320  0.0000
  O3     O3        0.412670976473371    0.260609860983759    0.316640708119154  0.0000
  O1     O1        0.024645874599324    0.028316439077857    0.531436857862288  0.0000
  O3     O3        0.474854519050778    0.062369123406530    0.516283689024952  0.0000
  O1     O1        0.974074764247437    0.057973211455023    0.280895528785814  0.0000
  O3     O3        0.520544247329379    0.008097981504625    0.262040153930562  0.0000
  O3     O3        0.970357164357220    0.046058275950491    0.785133585934056  0.0000
  O3     O3        0.520472825990786    0.036692276875542    0.759196656745458  0.0000
  O3     O3        0.620805003863339    0.137800408675103    0.097082351986570  0.0000
  O1     O1        0.864761478559708    0.928397756494308    0.102145078729152  0.0000
  O1     O1        0.409219630380900    0.273159437892241    0.841098624091679  0.0000
  O3     O3        0.076552458568210    0.823417896923314    0.851521856234350  0.0000
  O1     O1        0.372836531720606    0.926095741573649    0.842970675697041  0.0000
  O3     O3        0.108458777291502    0.154237642101360    0.848681335118522  0.0000
  O3     O3        0.570276075485824    0.816196714571239    0.080479058372005  0.0000
  O1     O1        0.914336678369667    0.271382328142426    0.092032325550930  0.0000
  O3     O3        0.479189267882085    0.069208864892453    0.021451831760352  0.0000
  O3     O3        0.017602669996505    0.011503808557524    0.026522079244447  0.0000
  O1     O1        0.152662551627758    0.482313810423977    0.320516600973976  0.0000
  O3     O3        0.339591447530432    0.552830570710701    0.303580754344625  0.0000
  O1     O1        0.833155606126410    0.582382401158205    0.625289081419848  0.0000
  O1     O1        0.648432314062899    0.507415304763767    0.622589316166951  0.0000
  O3     O3        0.269779553389496    0.260853492162949    0.246683134191493  0.0000
  O1     O1        0.228857582489463    0.794661194427176    0.260269934469548  0.0000
  O1     O1        0.759089769425679    0.268335210758372    0.685927972023675  0.0000
  O1     O1        0.724550481949500    0.818302111162641    0.686500852336863  0.0000
  O1     O1        0.136064154115004    0.283243312016372    0.098367888465844  0.0000
  O1     O1        0.356526235377273    0.797992284846243    0.095810927484970  0.0000
  O1     O1        0.875557436845654    0.399564277107541    0.845586939028458  0.0000
  O1     O1        0.606742119109175    0.680941853315623    0.840483519447327  0.0000
  O1     O1        0.852437075035188    0.795114432183394    0.847445380479060  0.0000
  O1     O1        0.631939104298138    0.291730826160794    0.845685218855749  0.0000
  O1     O1        0.111391253442520    0.671161767452786    0.099683939044932  0.0000
  O3     O3        0.371955388212535    0.399597264124178    0.090130837143864  0.0000
  O1     O1        0.646658898581524    0.498503979057458    0.063799904758298  0.0000
  O1     O1        0.835483030391196    0.578351686408574    0.066556077192457  0.0000
  O1     O1        0.332508548004807    0.582771503392923    0.872434862336668  0.0000
  O1     O1        0.148525055248194    0.503134606193893    0.876651839342715  0.0000
  O1     O1        0.760613722552242    0.267007087550096    0.008118553156666  0.0000
  O1     O1        0.723123032646515    0.811086425379104    0.002621949620687  0.0000
  O1     O1        0.258338503022153    0.262387037334832    0.923999839767411  0.0000
  O1     O1        0.225990509273156    0.815017649055776    0.942169744984762  0.0000
