data_c01211.vasp
_audit_creation_method             Generated by GULP
_audit_author_name                 Salvador R. G. Balestra
_symmetry_space_group_name_H-M     'P 1             '
_symmetry_Int_Tables_number        1

loop_
_symmetry_equiv_pos_site_id
_symmetry_equiv_pos_as_xyz
_cell_length_a                       17.5018
_cell_length_b                        7.8238
_cell_length_c                       10.2904
_cell_angle_alpha                   89.5817
_cell_angle_beta                    90.4024
_cell_angle_gamma                   91.4346

loop_
_atom_site_label
_atom_site_type_symbol
_atom_site_fract_x
_atom_site_fract_y
_atom_site_fract_z
_atom_site_charge
  Ge     Ge        0.052090000000021    0.000000000000000    0.372269999999958  0.0000
  Ge     Ge        0.450083110022017    0.053741981936259    0.364683874397854  0.0000
  Ge     Ge        0.949031751796375    0.050348128455874    0.627725807068454  0.0000
  Ge     Ge        0.941296839984298    0.047676220869003    0.124991123607346  0.0000
  Ge     Ge        0.450897418635845    0.054075654915072    0.869274136559455  0.0000
  Ge     Ge        0.174693742422013    0.284981829165671    0.262737528773471  0.0000
  Ge     Ge        0.325740486162202    0.770274897734440    0.255571993143205  0.0000
  Ge     Ge        0.847362429208525    0.360617744156783    0.696089038891306  0.0000
  Ge     Ge        0.642655032712744    0.685355960601659    0.696172201769000  0.0000
  Ge     Ge        0.824924804253581    0.764925022216728    0.702092131517374  0.0000
  Ge     Ge        0.666465395592881    0.281594266969820    0.694309968073759  0.0000
  Ge     Ge        0.144088123839846    0.684584181674904    0.257535066351849  0.0000
  Ge     Ge        0.356485868400011    0.368720644677616    0.254227965365164  0.0000
  Ge     Ge        0.667675041713810    0.277743064380713    0.010962278706538  0.0000
  Ge     Ge        0.824935046682029    0.750720309031484    0.015110735983272  0.0000
  Ge     Ge        0.348522430709292    0.362849654197217    0.937614041383815  0.0000
  Ge     Ge        0.143788949373628    0.683464879661375    0.941155531916656  0.0000
  Ge     Ge        0.325207642943465    0.765814683918774    0.940311116720041  0.0000
  Ge     Ge        0.166663519059575    0.281407659846237    0.947442561055830  0.0000
  Ge     Ge        0.641032860731926    0.678718459824457    0.010611771108159  0.0000
  Si     Si        0.550067859353363    0.996674702424707    0.617409708049181  0.0000
  Si     Si        0.553014203238530    0.990504684494709    0.120711788564455  0.0000
  Si     Si        0.046182564316291    0.992826894277464    0.882056878775195  0.0000
  Si     Si        0.846501197070481    0.354560590188777    0.006424988510072  0.0000
  O1     O1        0.130554808475401    0.132500018987102    0.356923672722071  0.0000
  O1     O1        0.371381430341972    0.923040363929827    0.346913316997885  0.0000
  O1     O1        0.914780874038340    0.253398265480042    0.612049765217043  0.0000
  O3     O3        0.581259852303703    0.806806893003504    0.602125782861488  0.0000
  O1     O1        0.874240393052106    0.906633271342583    0.605572317836416  0.0000
  O3     O3        0.617431823405634    0.137857627901557    0.595926344584581  0.0000
  O1     O1        0.075534576554959    0.793688926581091    0.337949348797273  0.0000
  O1     O1        0.425456242443849    0.261097991360532    0.338530173527399  0.0000
  O1     O1        0.024550632068443    0.010867639799359    0.532570946199867  0.0000
  O3     O3        0.478995202462598    0.031225581769838    0.525277404884576  0.0000
  O1     O1        0.974803130117842    0.062536179397743    0.281454258943000  0.0000
  O3     O3        0.525585177072784    0.996404920732158    0.268611516325027  0.0000
  O3     O3        0.975218079013481    0.030087970141606    0.790796047489168  0.0000
  O3     O3        0.525172976981668    0.016613296857936    0.767958481560034  0.0000
  O3     O3        0.627101745341446    0.114307665797837    0.101374571877494  0.0000
  O1     O1        0.871741409583343    0.890087881293145    0.116981630039557  0.0000
  O1     O1        0.412870882112529    0.252655336963880    0.848429752782524  0.0000
  O3     O3        0.078336744876806    0.804638261655692    0.856590566308687  0.0000
  O1     O1        0.377835590828585    0.906362582251378    0.848135392615604  0.0000
  O3     O3        0.114223954711562    0.132790577226739    0.859333040730148  0.0000
  O3     O3        0.574037087986919    0.795957642388913    0.090898968170266  0.0000
  O3     O3        0.908351026038540    0.247719514427062    0.084679711621330  0.0000
  O3     O3        0.484279657894512    0.051690357474405    0.028771507374044  0.0000
  O3     O3        0.019516206372292    0.998714539469755    0.031938064872391  0.0000
  O1     O1        0.158180925568217    0.485768111136973    0.323394878239661  0.0000
  O1     O1        0.343954519663928    0.568723657420991    0.315700181019295  0.0000
  O1     O1        0.837223283451745    0.563191026513156    0.639145819503730  0.0000
  O1     O1        0.652526244923552    0.485659453410625    0.633936585950452  0.0000
  O1     O1        0.271155788362023    0.253999936296092    0.260663123882604  0.0000
  O1     O1        0.229087434714902    0.800776702657102    0.259074671009599  0.0000
  O1     O1        0.762395859364143    0.244899391232135    0.688597523978123  0.0000
  O1     O1        0.728489818709891    0.797315726351178    0.703445672048083  0.0000
  O1     O1        0.138803085769735    0.271538355197580    0.106911439671797  0.0000
  O1     O1        0.357485705091524    0.783117532449932    0.098118138743920  0.0000
  O3     O3        0.872978802930275    0.381002473391680    0.858583989745217  0.0000
  O1     O1        0.610498906075541    0.659565512829965    0.852394140488475  0.0000
  O1     O1        0.857795061255343    0.780611551750997    0.860087624678409  0.0000
  O1     O1        0.635952272628451    0.269300954133111    0.852915657373283  0.0000
  O1     O1        0.116163774489761    0.653847697594183    0.099395939220849  0.0000
  O1     O1        0.381737133081534    0.387824466401238    0.094256263447552  0.0000
  O1     O1        0.646944713098619    0.474768237532387    0.073048883670707  0.0000
  O3     O3        0.837535306168046    0.540989171505804    0.067804442471644  0.0000
  O1     O1        0.335536762929969    0.563637099971035    0.877618130724546  0.0000
  O1     O1        0.152322536238501    0.482188711166293    0.880433023110220  0.0000
  O3     O3        0.765551168227923    0.251296156857771    0.009716495170065  0.0000
  O1     O1        0.728322736441334    0.782397177367719    0.016812918541693  0.0000
  O1     O1        0.263086345997280    0.247335786203388    0.941253284633143  0.0000
  O1     O1        0.228839223754304    0.799189643144577    0.939231785747536  0.0000
