data_c01319.vasp
_audit_creation_method             Generated by GULP
_audit_author_name                 Salvador R. G. Balestra
_symmetry_space_group_name_H-M     'P 1             '
_symmetry_Int_Tables_number        1

loop_
_symmetry_equiv_pos_site_id
_symmetry_equiv_pos_as_xyz
_cell_length_a                       17.7761
_cell_length_b                        7.8168
_cell_length_c                       10.3547
_cell_angle_alpha                   90.5040
_cell_angle_beta                    90.4477
_cell_angle_gamma                   89.9556

loop_
_atom_site_label
_atom_site_type_symbol
_atom_site_fract_x
_atom_site_fract_y
_atom_site_fract_z
_atom_site_charge
  Ge     Ge        0.052090000000021    0.000000000000000    0.372269999999958  0.0000
  Ge     Ge        0.942201569675299    0.981162295492549    0.620469179804383  0.0000
  Ge     Ge        0.548075267546145    0.020619783387317    0.127707596725290  0.0000
  Ge     Ge        0.943307864277307    0.998494187715318    0.120544517279208  0.0000
  Ge     Ge        0.440743977151942    0.023748775202737    0.872912076452624  0.0000
  Ge     Ge        0.048234567547828    0.995738231314060    0.874333062703916  0.0000
  Ge     Ge        0.169004549158891    0.290494412615928    0.304580161596754  0.0000
  Ge     Ge        0.330426101857489    0.749613770847204    0.299656417050275  0.0000
  Ge     Ge        0.819874182240837    0.266208794522849    0.734640655926360  0.0000
  Ge     Ge        0.659891827793174    0.735919657321490    0.735200813921061  0.0000
  Ge     Ge        0.840132238414274    0.675829370870157    0.730726061375392  0.0000
  Ge     Ge        0.640938558403906    0.324506189512311    0.737721421755057  0.0000
  Ge     Ge        0.350246672317034    0.343279808554339    0.301987541490168  0.0000
  Ge     Ge        0.844236275254950    0.679106562057708    0.046423850509182  0.0000
  Ge     Ge        0.348400194924076    0.341525044657275    0.987543406005506  0.0000
  Ge     Ge        0.143255189187879    0.683249070730967    0.995793195032906  0.0000
  Ge     Ge        0.321298199104603    0.750317158941764    0.986313392412379  0.0000
  Ge     Ge        0.168814885262239    0.275036083456615    0.992252317389412  0.0000
  Ge     Ge        0.663917577248155    0.733686962248749    0.048340073833472  0.0000
  Ge     Ge        0.820374810305537    0.274080325148750    0.049853484258096  0.0000
  Si     Si        0.445204140228826    0.032987656918374    0.380610138260609  0.0000
  Si     Si        0.543641968971692    0.016368142392918    0.628239998599140  0.0000
  Si     Si        0.153468889883005    0.689950435800776    0.303428880030604  0.0000
  Si     Si        0.644433778250419    0.331741030993362    0.045642054309253  0.0000
  O1     O1        0.116167819455339    0.161276831404445    0.401015801327287  0.0000
  O3     O3        0.378297643751605    0.895802062324508    0.395005234264491  0.0000
  O1     O1        0.871504847931498    0.126964172406222    0.644372240476789  0.0000
  O3     O3        0.610044226871538    0.879407101218036    0.641906890060405  0.0000
  O1     O1        0.905041517163568    0.781057614643573    0.640140121437010  0.0000
  O3     O3        0.573339467646591    0.206809369226536    0.657573208010268  0.0000
  O3     O3        0.097574522921623    0.804504966725959    0.388467549018259  0.0000
  O3     O3        0.411272844695911    0.221741575972955    0.395020804361496  0.0000
  O1     O1        0.973725637953761    0.005434663312816    0.465157064684486  0.0000
  O2     O2        0.513417074008608    0.004863626383222    0.480700287089762  0.0000
  O1     O1        0.019874392370672    0.027749159874847    0.216441316634064  0.0000
  O3     O3        0.477059736023943    0.006181006111368    0.236960396659003  0.0000
  O1     O1        0.020629100849708    0.009093506924963    0.715816067504566  0.0000
  O3     O3        0.473801747003111    0.979531553612421    0.719930585633447  0.0000
  O3     O3        0.586993366169496    0.224275839286642    0.131244170119887  0.0000
  O1     O1        0.908725778626546    0.794461565620081    0.133856530867764  0.0000
  O1     O1        0.412346191072660    0.231864024781284    0.895945770941684  0.0000
  O1     O1        0.074046645060881    0.790096663547496    0.915920937205738  0.0000
  O1     O1        0.363727044673268    0.894448626627239    0.889624265716218  0.0000
  O1     O1        0.122897996341332    0.131532342016760    0.895270866787537  0.0000
  O1     O1        0.616306133249315    0.867159962587389    0.150020250165172  0.0000
  O1     O1        0.868191003098105    0.135398567537480    0.145624426249572  0.0000
  O1     O1        0.510787961011704    0.972348701521304    0.979027653391084  0.0000
  O1     O1        0.971750677370430    0.046360085111715    0.965954931592235  0.0000
  O3     O3        0.161718862906344    0.501016946347238    0.360091732302338  0.0000
  O1     O1        0.347105657413043    0.548586587737949    0.359515170121963  0.0000
  O1     O1        0.829741560184762    0.470591437208934    0.675943555114936  0.0000
  O1     O1        0.646060853634906    0.528559635463812    0.680707101730731  0.0000
  O1     O1        0.263391441395780    0.246208221123567    0.307017868665777  0.0000
  O3     O3        0.234089640476779    0.784831805267052    0.300383456875124  0.0000
  O1     O1        0.725335304032700    0.220276693150731    0.726041717548752  0.0000
  O1     O1        0.754248775415876    0.778848392620063    0.726032932809414  0.0000
  O1     O1        0.137374411512628    0.264205695691570    0.148553490349885  0.0000
  O1     O1        0.357013134873438    0.762201638719850    0.141345951466944  0.0000
  O1     O1        0.849727711646364    0.261628276078801    0.892082242928863  0.0000
  O1     O1        0.631392451059204    0.752684678340331    0.892203350357965  0.0000
  O1     O1        0.872297553464620    0.674807880169898    0.887682921304781  0.0000
  O3     O3        0.614424920773080    0.336869806240698    0.898494262401521  0.0000
  O3     O3        0.120767563758349    0.672423354568339    0.158436940864908  0.0000
  O1     O1        0.380450754236088    0.348592557528801    0.145023202820407  0.0000
  O3     O3        0.653855398263771    0.522893875056943    0.099336539214722  0.0000
  O1     O1        0.837211163644186    0.477910961563615    0.106840707245709  0.0000
  O1     O1        0.335589026198214    0.543908844096817    0.930883038857141  0.0000
  O1     O1        0.152286324061652    0.479644743954310    0.937013945383460  0.0000
  O3     O3        0.724595414787369    0.234683103752499    0.047256486585459  0.0000
  O1     O1        0.757918073933629    0.779624415048941    0.049725627340145  0.0000
  O1     O1        0.263510385711027    0.235671479359647    0.989390076811626  0.0000
  O1     O1        0.226683918670267    0.791807934350718    0.984379306641460  0.0000
