data_c01313.vasp
_audit_creation_method             Generated by GULP
_audit_author_name                 Salvador R. G. Balestra
_symmetry_space_group_name_H-M     'P 1             '
_symmetry_Int_Tables_number        1

loop_
_symmetry_equiv_pos_site_id
_symmetry_equiv_pos_as_xyz
_cell_length_a                       17.0100
_cell_length_b                        7.9054
_cell_length_c                       10.4570
_cell_angle_alpha                   93.5393
_cell_angle_beta                    91.1558
_cell_angle_gamma                   90.6922

loop_
_atom_site_label
_atom_site_type_symbol
_atom_site_fract_x
_atom_site_fract_y
_atom_site_fract_z
_atom_site_charge
  Ge     Ge        0.052090000000021    0.000000000000000    0.372269999999958  0.0000
  Ge     Ge        0.947418054625928    0.991280947172354    0.631026626987082  0.0000
  Ge     Ge        0.551522374976379    0.049998686375375    0.117182387770511  0.0000
  Ge     Ge        0.941255026839266    0.088021022684891    0.121435378810850  0.0000
  Ge     Ge        0.427933371501583    0.040409242901347    0.863781465136682  0.0000
  Ge     Ge        0.050939503059824    0.987320119893906    0.886580474784422  0.0000
  Ge     Ge        0.171342070357782    0.287604934511010    0.302987751795049  0.0000
  Ge     Ge        0.329899527219078    0.766564198814360    0.298457215754003  0.0000
  Ge     Ge        0.840537705602554    0.304962090179935    0.763805029042817  0.0000
  Ge     Ge        0.636382527521776    0.680038435499969    0.714458733682624  0.0000
  Ge     Ge        0.831472497405639    0.710982091963697    0.716688882702072  0.0000
  Ge     Ge        0.654500013458280    0.280550026649418    0.752346642420793  0.0000
  Ge     Ge        0.364154518947018    0.355029533913943    0.278452924224007  0.0000
  Ge     Ge        0.653001281579683    0.375412737355292    0.069839801447744  0.0000
  Ge     Ge        0.835813712678496    0.776644937033970    0.015168862967511  0.0000
  Ge     Ge        0.353431265972681    0.375018190976471    0.977639987958635  0.0000
  Ge     Ge        0.132292527846854    0.667290616660161    0.003866969556964  0.0000
  Ge     Ge        0.312696642128939    0.765914609416938    0.985609789015259  0.0000
  Ge     Ge        0.157892165351198    0.286634678324055    0.995206455172200  0.0000
  Ge     Ge        0.838390257468766    0.396136890835509    0.076382927766006  0.0000
  Si     Si        0.455280112056286    0.047783266260844    0.373142333283110  0.0000
  Si     Si        0.537360401458514    0.976933412665546    0.630677591661216  0.0000
  Si     Si        0.154064904561993    0.676042579221592    0.318919737666278  0.0000
  Si     Si        0.645977770068027    0.743939401432955    0.010509863843958  0.0000
  O1     O1        0.128944855861945    0.141713996088019    0.395955438682845  0.0000
  O3     O3        0.382895753694755    0.919270780602498    0.390074923564121  0.0000
  O1     O1        0.909413593389985    0.176111132980149    0.696686924440287  0.0000
  O3     O3        0.575630330731903    0.791976871624504    0.616205738093625  0.0000
  O1     O1        0.880853849184970    0.827082179168697    0.609523503497265  0.0000
  O3     O3        0.599707424484258    0.105640929261761    0.701793294485217  0.0000
  O3     O3        0.085426380995933    0.792999648096708    0.373673367699434  0.0000
  O3     O3        0.428277638225839    0.241311056400796    0.369900920497706  0.0000
  O1     O1        0.981456123833073    0.032843828468627    0.482989012808494  0.0000
  O2     O2        0.518018187981457    0.037972824404304    0.489562377191560  0.0000
  O1     O1        0.011426956160034    0.021419861579659    0.223184751070794  0.0000
  O3     O3        0.495756516422982    0.986004803128904    0.240810858616036  0.0000
  O1     O1        0.025139084748776    0.939987090642121    0.730077248917955  0.0000
  O3     O3        0.458552380254988    0.977063328106854    0.712288131180532  0.0000
  O1     O1        0.590735262658192    0.247560001254257    0.150654190161220  0.0000
  O1     O1        0.861767016180189    0.944903015142409    0.113638112821132  0.0000
  O1     O1        0.398233569674128    0.250024101922913    0.863688302801236  0.0000
  O1     O1        0.059394508085446    0.801841429170965    0.965567121261958  0.0000
  O1     O1        0.346146366069006    0.926249058644275    0.897558878232761  0.0000
  O1     O1        0.135102366360547    0.113376202194712    0.895753858764423  0.0000
  O3     O3        0.630683287649565    0.908904377085367    0.099849788899131  0.0000
  O1     O1        0.902190034695897    0.280531968371893    0.165679822413882  0.0000
  O1     O1        0.500275898667597    0.016749104046141    0.976274840392523  0.0000
  O1     O1        0.981809041194200    0.100202290807134    0.972416557809638  0.0000
  O3     O3        0.140278012083257    0.486379667860530    0.360282829283366  0.0000
  O1     O1        0.372513916998256    0.570204855582912    0.303301501453045  0.0000
  O1     O1        0.863970862028525    0.509551841347756    0.728589051522663  0.0000
  O1     O1        0.616695379656602    0.466807196024104    0.701362159738801  0.0000
  O1     O1        0.271494252008079    0.283120199909022    0.311059726528378  0.0000
  O3     O3        0.238539726531600    0.750685541144085    0.368237546772918  0.0000
  O1     O1        0.748241660225744    0.256225036901089    0.698720842448872  0.0000
  O1     O1        0.733216325379363    0.711486155261608    0.678408893260420  0.0000
  O1     O1        0.139042079552296    0.233101530683221    0.148812870848546  0.0000
  O1     O1        0.320530762470617    0.831512119269707    0.145885055207557  0.0000
  O1     O1        0.832648067924873    0.292495620008941    0.925725887246804  0.0000
  O3     O3        0.613595019023120    0.761242748138921    0.866890154736454  0.0000
  O1     O1        0.858231612268149    0.820097347042099    0.860876919526797  0.0000
  O1     O1        0.654938265782561    0.284605442265040    0.916485813280700  0.0000
  O3     O3        0.159907282858403    0.662451699196952    0.164252022840894  0.0000
  O1     O1        0.388678237576108    0.306344024683537    0.121651855016526  0.0000
  O3     O3        0.610846395110337    0.574620320922465    0.067846560336268  0.0000
  O1     O1        0.877208403006060    0.595688773198297    0.070050021568009  0.0000
  O1     O1        0.369083238863809    0.586844130559754    0.960397158725439  0.0000
  O1     O1        0.104934684691267    0.463199677691465    0.957837538056005  0.0000
  O1     O1        0.745297010647773    0.387428400645311    0.138782054614462  0.0000
  O3     O3        0.739071681298591    0.702731646965373    0.996523882211258  0.0000
  O1     O1        0.252561494654266    0.361741650154341    0.988165517109904  0.0000
  O1     O1        0.216845036831444    0.736546420012591    0.934396121540902  0.0000
