data_c01334.vasp
_audit_creation_method             Generated by GULP
_audit_author_name                 Salvador R. G. Balestra
_symmetry_space_group_name_H-M     'P 1             '
_symmetry_Int_Tables_number        1

loop_
_symmetry_equiv_pos_site_id
_symmetry_equiv_pos_as_xyz
_cell_length_a                       17.7226
_cell_length_b                        7.8383
_cell_length_c                       10.3504
_cell_angle_alpha                   89.1194
_cell_angle_beta                    91.4008
_cell_angle_gamma                   89.3822

loop_
_atom_site_label
_atom_site_type_symbol
_atom_site_fract_x
_atom_site_fract_y
_atom_site_fract_z
_atom_site_charge
  Ge     Ge        0.052090000000021    0.000000000000000    0.372269999999958  0.0000
  Ge     Ge        0.940208093100545    0.000059265397646    0.616438598657392  0.0000
  Ge     Ge        0.549330205536307    0.032695711475588    0.149695006609847  0.0000
  Ge     Ge        0.947589014833723    0.002792568465540    0.110733753531201  0.0000
  Ge     Ge        0.442227847866183    0.026592592185063    0.890379380920250  0.0000
  Ge     Ge        0.169744272815277    0.282506932274175    0.291349697617662  0.0000
  Ge     Ge        0.334095174027455    0.727233612042897    0.285599945315058  0.0000
  Ge     Ge        0.819096298931290    0.284711085474484    0.727032297238890  0.0000
  Ge     Ge        0.659193793869186    0.755544745831291    0.721263149033941  0.0000
  Ge     Ge        0.840403064205308    0.690168188822904    0.718831864961382  0.0000
  Ge     Ge        0.638197936927074    0.347198956474211    0.726324252153265  0.0000
  Ge     Ge        0.152132172470196    0.686018269170279    0.299091864705115  0.0000
  Ge     Ge        0.641734555831349    0.349416275445582    0.040901070873931  0.0000
  Ge     Ge        0.848199791107866    0.687451655817695    0.033196886964988  0.0000
  Ge     Ge        0.341562803536959    0.340301459425713    0.969434835056951  0.0000
  Ge     Ge        0.142424862767974    0.698852691141434    0.983332648786435  0.0000
  Ge     Ge        0.323085235706116    0.748430986970571    0.972600168819247  0.0000
  Ge     Ge        0.161747124512129    0.289347604002021    0.977545480361325  0.0000
  Ge     Ge        0.668029056470566    0.757122354073829    0.035010585038002  0.0000
  Ge     Ge        0.822350050702090    0.283694302430849    0.041731414875332  0.0000
  Si     Si        0.444687064033280    0.016287554917076    0.389930505116301  0.0000
  Si     Si        0.543305756691849    0.039163472377197    0.640035399038353  0.0000
  Si     Si        0.046400043345325    0.011540836265143    0.865471231529974  0.0000
  Si     Si        0.347660301256324    0.325876121177279    0.276060532826647  0.0000
  O1     O1        0.124828545390142    0.142872693500338    0.389689506866502  0.0000
  O3     O3        0.387622438353051    0.860141091983926    0.381472523224268  0.0000
  O1     O1        0.868396736120219    0.143460764832593    0.636618714731331  0.0000
  O3     O3        0.609183579731365    0.899397451836999    0.622465149409194  0.0000
  O1     O1        0.903799221700018    0.799648270834929    0.627812142143248  0.0000
  O3     O3        0.576173909841854    0.228266101487336    0.633108259394171  0.0000
  O1     O1        0.092123008715080    0.800959898218746    0.392566659614432  0.0000
  O2     O2        0.404923286352893    0.197261575443750    0.352627227100540  0.0000
  O1     O1        0.975555928707139    0.031212225358471    0.464574598015852  0.0000
  O2     O2        0.473871100404185    0.023093862678095    0.538525268569474  0.0000
  O1     O1        0.021933382157873    0.028729362775916    0.213250181626138  0.0000
  O3     O3        0.516827726166653    0.991140202440014    0.302788503712466  0.0000
  O3     O3        0.018220273834697    0.025464454124975    0.717640776424264  0.0000
  O3     O3        0.512112141515675    0.999396504772865    0.782083626618424  0.0000
  O1     O1        0.577606482941463    0.240221920772853    0.130232435102598  0.0000
  O1     O1        0.913360710003100    0.799057539536935    0.121360783144152  0.0000
  O1     O1        0.405306795539808    0.230030913882359    0.881584264462697  0.0000
  O3     O3        0.075914412122608    0.820234156496804    0.898926739482910  0.0000
  O1     O1        0.369099953984020    0.885170543377475    0.873417621336347  0.0000
  O3     O3        0.112763503874813    0.146837074937503    0.884224817033488  0.0000
  O1     O1        0.627006510167093    0.903187861802696    0.131084041022507  0.0000
  O1     O1        0.873801938462468    0.142435691473306    0.135503818916995  0.0000
  O1     O1        0.479621763327049    0.980951554851590    0.041522946073693  0.0000
  O3     O3        0.976057330519586    0.051859146720914    0.954778424413698  0.0000
  O1     O1        0.157839813826969    0.481125698255593    0.355667412968788  0.0000
  O3     O3        0.345822079789398    0.513979462950860    0.335293873635639  0.0000
  O1     O1        0.829553377065692    0.487542333514465    0.663382967830417  0.0000
  O1     O1        0.644493708561536    0.550792458910409    0.666998821178478  0.0000
  O3     O3        0.265497995429935    0.241702603493902    0.279566303124421  0.0000
  O1     O1        0.240382742812250    0.776696155389785    0.299192332925306  0.0000
  O1     O1        0.724200241680782    0.243451286150218    0.725702030435704  0.0000
  O1     O1        0.754134394679583    0.794573468413737    0.714975146939320  0.0000
  O1     O1        0.134254730093449    0.277724197072418    0.135107511075186  0.0000
  O1     O1        0.359599224855638    0.752243568704471    0.128702654019280  0.0000
  O1     O1        0.851145022023590    0.277533027538033    0.884129576055979  0.0000
  O1     O1        0.632007348256862    0.766725601236194    0.878997465355410  0.0000
  O1     O1        0.875447878224311    0.680515605793019    0.874994910477669  0.0000
  O1     O1        0.608445572282390    0.352878268412702    0.882850419604107  0.0000
  O1     O1        0.117236612864377    0.686301345479786    0.142125520289315  0.0000
  O3     O3        0.374349496109942    0.341717120713857    0.129512146934821  0.0000
  O1     O1        0.653481800841961    0.552702364220973    0.093991304907596  0.0000
  O1     O1        0.838010804965152    0.487567374685683    0.096853083673862  0.0000
  O1     O1        0.332315638133119    0.544663860182403    0.913887488415913  0.0000
  O1     O1        0.147108914439781    0.496607084748869    0.922942855289089  0.0000
  O1     O1        0.727671765790360    0.244008675507105    0.045925861582246  0.0000
  O1     O1        0.762886649336208    0.794796254943818    0.030998652960359  0.0000
  O1     O1        0.255822937600212    0.240652409116457    0.966308053550028  0.0000
  O1     O1        0.228613685283189    0.795965518160406    0.977178936506699  0.0000
