data_c01375.vasp
_audit_creation_method             Generated by GULP
_audit_author_name                 Salvador R. G. Balestra
_symmetry_space_group_name_H-M     'P 1             '
_symmetry_Int_Tables_number        1

loop_
_symmetry_equiv_pos_site_id
_symmetry_equiv_pos_as_xyz
_cell_length_a                       17.7274
_cell_length_b                        7.8064
_cell_length_c                       10.3608
_cell_angle_alpha                   90.3079
_cell_angle_beta                    89.8818
_cell_angle_gamma                   89.9705

loop_
_atom_site_label
_atom_site_type_symbol
_atom_site_fract_x
_atom_site_fract_y
_atom_site_fract_z
_atom_site_charge
  Ge     Ge        0.052090000000021    0.000000000000000    0.372269999999958  0.0000
  Ge     Ge        0.550657131562989    0.014159481385497    0.602316235829003  0.0000
  Ge     Ge        0.552088373782885    0.013656951165197    0.112140114744508  0.0000
  Ge     Ge        0.938541964586306    0.985118186038283    0.129033280788257  0.0000
  Ge     Ge        0.446347075361720    0.010627475667859    0.861204966995515  0.0000
  Ge     Ge        0.043190071500563    0.990933200197157    0.874265677840738  0.0000
  Ge     Ge        0.168264585053197    0.290590979628414    0.263761023737799  0.0000
  Ge     Ge        0.329607450765422    0.745937357172347    0.247713242088303  0.0000
  Ge     Ge        0.831852225324045    0.263795775540469    0.692286181110596  0.0000
  Ge     Ge        0.670695528528795    0.736246872183748    0.690410162781255  0.0000
  Ge     Ge        0.851353893079368    0.674299277750391    0.698531297633771  0.0000
  Ge     Ge        0.652279506253182    0.324533761428181    0.684411715590851  0.0000
  Ge     Ge        0.350201273697676    0.340569588895452    0.260263115240807  0.0000
  Ge     Ge        0.849106587259926    0.664901598778807    0.011701821672401  0.0000
  Ge     Ge        0.347018375748846    0.327535392685391    0.945322169962005  0.0000
  Ge     Ge        0.144885459562877    0.676891631739113    0.946784905227473  0.0000
  Ge     Ge        0.322979671907925    0.733823135105643    0.932070487822097  0.0000
  Ge     Ge        0.167282021577325    0.265069824461339    0.952185618580537  0.0000
  Ge     Ge        0.667843163170972    0.725745414304281    0.001062824805860  0.0000
  Ge     Ge        0.821659355420673    0.259302872915877    0.005878965047634  0.0000
  Si     Si        0.446540074985889    0.033273800850324    0.358470701474861  0.0000
  Si     Si        0.947515973880992    0.983868574371068    0.618178645925213  0.0000
  Si     Si        0.152437680915469    0.694980188951410    0.254848668272458  0.0000
  Si     Si        0.645242871458778    0.322346022469458    0.990533564842282  0.0000
  O1     O1        0.115124443212136    0.164997942078271    0.363597204137811  0.0000
  O3     O3        0.378226651255428    0.906267533062691    0.324513012586390  0.0000
  O3     O3        0.883810807235045    0.127608439889054    0.593964998220668  0.0000
  O1     O1        0.621885769009765    0.865709667926665    0.587179401009582  0.0000
  O3     O3        0.912061462578173    0.795425196415241    0.604542475639379  0.0000
  O1     O1        0.589153170207106    0.214695730905957    0.590901346715604  0.0000
  O3     O3        0.094546909791726    0.805837715000549    0.339023076761095  0.0000
  O3     O3        0.415180283764057    0.225473940871575    0.348995419132661  0.0000
  O3     O3        0.020988451475668    0.000455263910022    0.531106256653670  0.0000
  O3     O3        0.473992448802279    0.992245366858826    0.502653421850765  0.0000
  O1     O1        0.972310267787251    0.021616013606296    0.281317240837037  0.0000
  O3     O3        0.520397368680509    0.010327428146627    0.270023246634680  0.0000
  O3     O3        0.971485628701175    0.017233529525934    0.766780816370425  0.0000
  O1     O1        0.518500575502190    0.980923935067307    0.757073006623737  0.0000
  O3     O3        0.585200973942739    0.215806522139774    0.072576630970414  0.0000
  O1     O1        0.912001407505886    0.775514219808274    0.105137794959510  0.0000
  O1     O1        0.409650824636560    0.213873396467849    0.853197688619823  0.0000
  O1     O1        0.075937252554793    0.783713825545994    0.866134899080246  0.0000
  O1     O1        0.373509511257721    0.867340756088655    0.836463006825439  0.0000
  O1     O1        0.118373926262687    0.128059925687997    0.855189295797483  0.0000
  O1     O1        0.620866274877608    0.859841660394073    0.103812823129124  0.0000
  O1     O1        0.859322804317801    0.108461008974978    0.103735127704370  0.0000
  O1     O1        0.477668447155186    0.967151183361401    0.015151118863777  0.0000
  O1     O1        0.008703200774193    0.042166025443290    0.024462123274276  0.0000
  O3     O3        0.160452799375121    0.504589947794003    0.309977993184201  0.0000
  O1     O1        0.347386900792066    0.548775893893580    0.314481052133013  0.0000
  O1     O1        0.844343608171226    0.470946033414079    0.638471328326342  0.0000
  O1     O1        0.662028461570965    0.529247812387946    0.633010144210523  0.0000
  O1     O1        0.262763145310173    0.246538495772902    0.271917558667194  0.0000
  O3     O3        0.233588675873976    0.788280677978245    0.255964298026417  0.0000
  O1     O1        0.737302867671958    0.218328181036095    0.680715184927244  0.0000
  O1     O1        0.765538642454777    0.778065884524621    0.697212855537208  0.0000
  O1     O1        0.136301762490349    0.256836574578939    0.110140902736857  0.0000
  O1     O1        0.354796663506496    0.738901234511908    0.089190835797147  0.0000
  O1     O1        0.857593546265369    0.251693788095720    0.851782431026732  0.0000
  O1     O1        0.636557824679035    0.753996279518724    0.846019694762660  0.0000
  O1     O1        0.882414795902256    0.663584698247806    0.855143640182206  0.0000
  O3     O3        0.618423196848846    0.329704098192376    0.842361099954832  0.0000
  O3     O3        0.121145544047715    0.683467250584062    0.109733474988809  0.0000
  O1     O1        0.379151225744802    0.338456430031910    0.102020812928670  0.0000
  O3     O3        0.653746725520576    0.513216520471006    0.046092213981399  0.0000
  O1     O1        0.840175064391282    0.460204815831585    0.067376820664439  0.0000
  O1     O1        0.333644639900363    0.524754454471236    0.880022289228541  0.0000
  O1     O1        0.153493913903008    0.470914236043934    0.895897990888045  0.0000
  O3     O3        0.725418125624215    0.225595839632395    0.994801683246383  0.0000
  O1     O1        0.762528345097121    0.764645721491144    0.009461947512203  0.0000
  O1     O1        0.261738522361222    0.220726235340010    0.951822814187878  0.0000
  O1     O1        0.228950868040818    0.783768261225995    0.928903690713514  0.0000
