data_c01353.vasp
_audit_creation_method             Generated by GULP
_audit_author_name                 Salvador R. G. Balestra
_symmetry_space_group_name_H-M     'P 1             '
_symmetry_Int_Tables_number        1

loop_
_symmetry_equiv_pos_site_id
_symmetry_equiv_pos_as_xyz
_cell_length_a                       17.5303
_cell_length_b                        7.8334
_cell_length_c                       10.1807
_cell_angle_alpha                   89.9925
_cell_angle_beta                    90.0590
_cell_angle_gamma                   88.4739

loop_
_atom_site_label
_atom_site_type_symbol
_atom_site_fract_x
_atom_site_fract_y
_atom_site_fract_z
_atom_site_charge
  Ge     Ge        0.052090000000021    0.000000000000000    0.372269999999958  0.0000
  Ge     Ge        0.554104921404121    0.982511466228977    0.609441395902940  0.0000
  Ge     Ge        0.551687198253342    0.999802996065906    0.111631242978383  0.0000
  Ge     Ge        0.950685193688870    0.943541542085030    0.110169566648172  0.0000
  Ge     Ge        0.444883724040868    0.940894613131747    0.858341721689162  0.0000
  Ge     Ge        0.056730656506511    0.999086455552027    0.855012405844500  0.0000
  Ge     Ge        0.151787193993581    0.307984099921637    0.292686129335211  0.0000
  Ge     Ge        0.355419608599920    0.631629406776486    0.292930376277843  0.0000
  Ge     Ge        0.831269566457272    0.223520798407275    0.729425410076155  0.0000
  Ge     Ge        0.676500881687853    0.698105459289530    0.719414197768641  0.0000
  Ge     Ge        0.861121888172191    0.624612739720973    0.725623497226658  0.0000
  Ge     Ge        0.648953271616168    0.296565107250398    0.726549631008000  0.0000
  Ge     Ge        0.174982838996371    0.713070710630732    0.294140454806442  0.0000
  Ge     Ge        0.334033963129420    0.227477049544976    0.285808407853871  0.0000
  Ge     Ge        0.653137986263053    0.308988537136812    0.048853875077663  0.0000
  Ge     Ge        0.856287771246639    0.626014370384597    0.040776784890612  0.0000
  Ge     Ge        0.329503280196417    0.238188599018214    0.969189571466954  0.0000
  Ge     Ge        0.176420982348966    0.716270676441269    0.975465834447916  0.0000
  Ge     Ge        0.146376154027582    0.315030815795017    0.973716350735440  0.0000
  Ge     Ge        0.674462711742510    0.709372350307024    0.035984286192172  0.0000
  Si     Si        0.450695507226535    0.941079342132653    0.360428449714559  0.0000
  Si     Si        0.949712942094064    0.935250736255719    0.614800027293509  0.0000
  Si     Si        0.354461613789051    0.632354930043663    0.981181433879463  0.0000
  Si     Si        0.830127874064939    0.232888854602330    0.043067584518944  0.0000
  O1     O1        0.090147195602036    0.197577618098737    0.390026055747845  0.0000
  O3     O3        0.420597343861036    0.750424996494343    0.379494688648007  0.0000
  O3     O3        0.878703445990492    0.058308268406570    0.651666315877387  0.0000
  O1     O1        0.632040189259112    0.848181354226829    0.622070287513385  0.0000
  O3     O3        0.926615723188107    0.740686169919649    0.637043812891017  0.0000
  O1     O1        0.580129622373419    0.186540237682429    0.646063974270937  0.0000
  O1     O1        0.123411647143667    0.847866128472018    0.393716171480032  0.0000
  O3     O3        0.382905285712120    0.080798780510122    0.383811583048051  0.0000
  O3     O3        0.971571145157254    0.962816204004225    0.462845286432724  0.0000
  O3     O3        0.524098043304170    0.977204500084785    0.446488811819156  0.0000
  O1     O1        0.024713864474784    0.988157834834529    0.209184672588642  0.0000
  O3     O3        0.474304107965138    0.958922203060381    0.207282500564636  0.0000
  O3     O3        0.026062568226801    0.983672024619308    0.693546862409628  0.0000
  O1     O1        0.477266442935604    0.921822548620575    0.700089177299848  0.0000
  O1     O1        0.589835344895684    0.196851254459835    0.139260458531225  0.0000
  O1     O1        0.914635846429747    0.744014089116310    0.137899464381844  0.0000
  O1     O1        0.373467723260254    0.094858957836787    0.866059217747802  0.0000
  O1     O1        0.137151346731289    0.872471897429367    0.878771362932959  0.0000
  O3     O3        0.416042408652106    0.739263802585995    0.903786635876218  0.0000
  O1     O1        0.080202511056692    0.206975605247603    0.885089003940923  0.0000
  O1     O1        0.625264288049310    0.852771910880559    0.130833869793135  0.0000
  O3     O3        0.877866940234460    0.097209453783657    0.128214783352315  0.0000
  O1     O1        0.521365662294889    0.998723765897704    0.950929475707766  0.0000
  O1     O1        0.982781595250070    0.936574670437816    0.950387158535158  0.0000
  O1     O1        0.164848238604662    0.507897581628408    0.352112340372207  0.0000
  O1     O1        0.348417132343887    0.428624736297199    0.351108228792467  0.0000
  O1     O1        0.852848847594006    0.420028438774455    0.665593786171435  0.0000
  O1     O1        0.659502114072646    0.496360748940008    0.661316226796802  0.0000
  O1     O1        0.237796418183831    0.194739295299970    0.286744373666196  0.0000
  O1     O1        0.271087269480446    0.747814934043202    0.298805631848706  0.0000
  O1     O1        0.735954501319116    0.188136652582058    0.716542295721459  0.0000
  O1     O1        0.773158956677904    0.725721947825873    0.720770778162758  0.0000
  O1     O1        0.117559921841259    0.327022221896185    0.134866829112815  0.0000
  O3     O3        0.381978481057462    0.602990486889057    0.130275236697954  0.0000
  O3     O3        0.859155693406242    0.226719008481525    0.892669518031555  0.0000
  O1     O1        0.641241151091753    0.720370325541938    0.876564176846858  0.0000
  O1     O1        0.892723829120354    0.611502672641078    0.884407596231928  0.0000
  O1     O1        0.623876845400304    0.321748406159671    0.887799940957597  0.0000
  O1     O1        0.143237461548725    0.732672223365019    0.134205522450072  0.0000
  O1     O1        0.364863582836533    0.211990974207527    0.125551126861187  0.0000
  O1     O1        0.661169397844425    0.510903254317749    0.105573931282530  0.0000
  O3     O3        0.842953592800399    0.422901844059200    0.100662183203937  0.0000
  O3     O3        0.343553526755930    0.447315025157969    0.916831237912301  0.0000
  O1     O1        0.154719793276605    0.518693589920544    0.914676839037648  0.0000
  O3     O3        0.740618415769620    0.197202054874584    0.046922023445447  0.0000
  O1     O1        0.770674067409947    0.737964817904244    0.030339060832961  0.0000
  O1     O1        0.233251713953577    0.207638452360944    0.968827551914797  0.0000
  O3     O3        0.274332707891030    0.738405818288038    0.981385609652551  0.0000
