data_c01328.vasp
_audit_creation_method             Generated by GULP
_audit_author_name                 Salvador R. G. Balestra
_symmetry_space_group_name_H-M     'P 1             '
_symmetry_Int_Tables_number        1

loop_
_symmetry_equiv_pos_site_id
_symmetry_equiv_pos_as_xyz
_cell_length_a                       17.6026
_cell_length_b                        7.8078
_cell_length_c                       10.0778
_cell_angle_alpha                   91.0199
_cell_angle_beta                    90.4347
_cell_angle_gamma                   91.0549

loop_
_atom_site_label
_atom_site_type_symbol
_atom_site_fract_x
_atom_site_fract_y
_atom_site_fract_z
_atom_site_charge
  Ge     Ge        0.052090000000021    0.000000000000000    0.372269999999958  0.0000
  Ge     Ge        0.937986901384832    0.029224127083582    0.616726252833363  0.0000
  Ge     Ge        0.544216876477159    0.986009789211710    0.118593970997929  0.0000
  Ge     Ge        0.939703546016812    0.039402273545423    0.125217746544084  0.0000
  Ge     Ge        0.443887363182574    0.043107014199647    0.853672895825734  0.0000
  Ge     Ge        0.042598111857524    0.975679129827462    0.871947995078213  0.0000
  Ge     Ge        0.168605111557689    0.292892872354482    0.263103345165178  0.0000
  Ge     Ge        0.325083389992434    0.761772131963709    0.257046397745512  0.0000
  Ge     Ge        0.637378393782680    0.664918982664053    0.677921107317453  0.0000
  Ge     Ge        0.819168939604287    0.736841243512611    0.683311536636198  0.0000
  Ge     Ge        0.662014366470134    0.263847186942823    0.684295736410435  0.0000
  Ge     Ge        0.352005032157574    0.358631531833977    0.258018830589394  0.0000
  Ge     Ge        0.666838532582827    0.265135205902564    0.007216118544255  0.0000
  Ge     Ge        0.818042321786571    0.753618671482050    0.004267482724180  0.0000
  Ge     Ge        0.345687985053478    0.351158910145984    0.936177579134371  0.0000
  Ge     Ge        0.145291348057784    0.669791160920922    0.934377945909336  0.0000
  Ge     Ge        0.322165924370394    0.758218046448941    0.934954730192106  0.0000
  Ge     Ge        0.167094251306098    0.264190580183561    0.944385171424265  0.0000
  Ge     Ge        0.637524745641690    0.669598045488456    0.000361191099435  0.0000
  Ge     Ge        0.846061940462892    0.347544188752973    0.998855997772857  0.0000
  Si     Si        0.440795848203612    0.046186413277984    0.369205650715379  0.0000
  Si     Si        0.546464314894842    0.978540290899270    0.605514135944083  0.0000
  Si     Si        0.839404334756043    0.340606424094864    0.682625404525578  0.0000
  Si     Si        0.146985135730454    0.688156792526609    0.251981777554421  0.0000
  O1     O1        0.121296169896754    0.155637676729959    0.365204840987502  0.0000
  O3     O3        0.366695598946787    0.925851339986449    0.350002561411418  0.0000
  O3     O3        0.897473080248771    0.228705303916300    0.596928369035364  0.0000
  O3     O3        0.574827835810860    0.786531782506041    0.585064354418266  0.0000
  O1     O1        0.870811670443747    0.870618702319566    0.584709859177015  0.0000
  O3     O3        0.616120417182754    0.111104608811022    0.584880258030518  0.0000
  O3     O3        0.085323008145251    0.799842332090852    0.328606503121512  0.0000
  O3     O3        0.418115753510796    0.240969638247188    0.344897743477462  0.0000
  O1     O1        0.020530174602109    0.997836696180846    0.534074862043875  0.0000
  O2     O2        0.471988502904315    0.025103976630428    0.520276869091980  0.0000
  O1     O1        0.969909680214538    0.045061337792398    0.287684137855699  0.0000
  O3     O3        0.510323132133047    0.987340340006243    0.278991432881670  0.0000
  O1     O1        0.963775882301930    0.017813984094349    0.782450989219615  0.0000
  O3     O3        0.521804524510558    0.001126343809050    0.759227032088382  0.0000
  O1     O1        0.622209551945419    0.119764030722547    0.105449571541411  0.0000
  O1     O1        0.862745648740784    0.902849555670755    0.104679713013139  0.0000
  O1     O1        0.405941232439851    0.241920589506112    0.833891303638624  0.0000
  O1     O1        0.077836228132666    0.773107001089770    0.845863174146986  0.0000
  O1     O1        0.373803408028373    0.888287288591485    0.834532991929689  0.0000
  O1     O1        0.115178891365382    0.123019765837282    0.848772345160636  0.0000
  O1     O1        0.569614561791655    0.778389548361583    0.085098617712459  0.0000
  O1     O1        0.916273842910056    0.244051125396271    0.079582582447689  0.0000
  O1     O1        0.472664987763810    0.048884344714988    0.017581200898324  0.0000
  O1     O1        0.016758990661456    0.975585468950938    0.036738531137570  0.0000
  O3     O3        0.156067097023575    0.503251291313743    0.317700466874711  0.0000
  O1     O1        0.346469701579190    0.565237403264662    0.319697123403563  0.0000
  O3     O3        0.828596714891659    0.527108647045713    0.623211792470793  0.0000
  O1     O1        0.643657289706707    0.460372806900761    0.616835364026068  0.0000
  O1     O1        0.264562248528827    0.258773045009393    0.265384491416293  0.0000
  O3     O3        0.227714488866962    0.789833499713769    0.256967748944902  0.0000
  O3     O3        0.759272512569840    0.235777601788288    0.685794032378819  0.0000
  O1     O1        0.723500659832389    0.772994020706872    0.678430312109172  0.0000
  O1     O1        0.134249980060666    0.255621378719590    0.105252978802054  0.0000
  O1     O1        0.355543432969795    0.776881979748125    0.096251150059175  0.0000
  O3     O3        0.869314527177579    0.368380058993530    0.832847584855142  0.0000
  O1     O1        0.607341419063278    0.645176611604247    0.838191345194415  0.0000
  O1     O1        0.850864941504523    0.765995604159952    0.844022740399890  0.0000
  O1     O1        0.632964188055910    0.250956501771233    0.846030679138439  0.0000
  O3     O3        0.121715653088310    0.651134491355100    0.101065625606316  0.0000
  O1     O1        0.380025181256707    0.374994728521968    0.096452556788507  0.0000
  O1     O1        0.651343512417200    0.471136500556569    0.064554246765558  0.0000
  O1     O1        0.834681098798769    0.550464960876494    0.061484789667225  0.0000
  O1     O1        0.330244034141623    0.549681666027743    0.876927567061938  0.0000
  O1     O1        0.156706992115214    0.465918529378957    0.878271230985405  0.0000
  O1     O1        0.762684399839991    0.230619886898293    0.010134623315912  0.0000
  O1     O1        0.721841604973695    0.785125674111365    0.002473287058798  0.0000
  O1     O1        0.262877808265096    0.229155953434234    0.946611181721702  0.0000
  O1     O1        0.226768569048387    0.796057983518644    0.930170232246086  0.0000
