data_c01399.vasp
_audit_creation_method             Generated by GULP
_audit_author_name                 Salvador R. G. Balestra
_symmetry_space_group_name_H-M     'P 1             '
_symmetry_Int_Tables_number        1

loop_
_symmetry_equiv_pos_site_id
_symmetry_equiv_pos_as_xyz
_cell_length_a                       17.5170
_cell_length_b                        7.8218
_cell_length_c                       10.1628
_cell_angle_alpha                   90.9579
_cell_angle_beta                    89.3773
_cell_angle_gamma                   91.3674

loop_
_atom_site_label
_atom_site_type_symbol
_atom_site_fract_x
_atom_site_fract_y
_atom_site_fract_z
_atom_site_charge
  Ge     Ge        0.052090000000021    0.000000000000000    0.372269999999958  0.0000
  Ge     Ge        0.546546929140564    0.987218269434212    0.608772861896437  0.0000
  Ge     Ge        0.544700749333942    0.989188165701693    0.118977186562723  0.0000
  Ge     Ge        0.940467829771092    0.047176903294980    0.127945515101907  0.0000
  Ge     Ge        0.046255796778869    0.980953862571677    0.870387611509727  0.0000
  Ge     Ge        0.168771077669269    0.294392231162588    0.261938818614607  0.0000
  Ge     Ge        0.325819757551399    0.762796402647536    0.257733508977446  0.0000
  Ge     Ge        0.852652465315302    0.349723882935091    0.688008809395890  0.0000
  Ge     Ge        0.645254227078204    0.674651880725475    0.682234521675391  0.0000
  Ge     Ge        0.827540733633431    0.752999995758934    0.691176642396339  0.0000
  Ge     Ge        0.670536595080427    0.271761215073373    0.685305255301493  0.0000
  Ge     Ge        0.352959372740312    0.362914875542145    0.259337143192862  0.0000
  Ge     Ge        0.668016358332301    0.271230940864612    0.004902689617680  0.0000
  Ge     Ge        0.819418375473595    0.760754254065490    0.010927107124099  0.0000
  Ge     Ge        0.351437685522601    0.351149095220457    0.941092984664249  0.0000
  Ge     Ge        0.149878011234529    0.676823641414080    0.935969761261530  0.0000
  Ge     Ge        0.330187869963418    0.755594345003829    0.937942231023537  0.0000
  Ge     Ge        0.169647629434936    0.271325836514912    0.946288630124664  0.0000
  Ge     Ge        0.638384441777257    0.674554276682384    0.002118385865615  0.0000
  Ge     Ge        0.849235410122075    0.358141910941384    0.007466784154025  0.0000
  Si     Si        0.439884867468705    0.051035356510652    0.369903702628407  0.0000
  Si     Si        0.946940459540948    0.035423683791253    0.620130813706533  0.0000
  Si     Si        0.447280173492591    0.045003390347920    0.865061467086545  0.0000
  Si     Si        0.146974393618130    0.690392230796628    0.250734869398867  0.0000
  O1     O1        0.121980027124461    0.155520305630034    0.364499288861535  0.0000
  O3     O3        0.366011648753791    0.929642660858941    0.346916880916372  0.0000
  O3     O3        0.917020403369105    0.225718811889031    0.599291486743498  0.0000
  O1     O1        0.581623672186406    0.786021236020530    0.590644469221816  0.0000
  O3     O3        0.878511903453981    0.897801310133952    0.595785565074220  0.0000
  O1     O1        0.620711228296668    0.130735817043218    0.586293582307083  0.0000
  O3     O3        0.084979722530202    0.800014632633233    0.329284409008204  0.0000
  O3     O3        0.418227279040332    0.245855814177873    0.344966160856960  0.0000
  O3     O3        0.021541146648321    0.993833641841106    0.535821511744880  0.0000
  O3     O3        0.467195438663740    0.029504078795292    0.518856989509040  0.0000
  O1     O1        0.972034264249759    0.046150700808681    0.286995802927690  0.0000
  O3     O3        0.511320329029961    0.994990008071826    0.279570421738573  0.0000
  O3     O3        0.969495514882761    0.020134022350887    0.774056022779607  0.0000
  O3     O3        0.519307533239641    0.010199722692943    0.773927769823183  0.0000
  O1     O1        0.622401488957170    0.124210121330150    0.102401467347591  0.0000
  O1     O1        0.862411943479856    0.912297473126722    0.109186602963263  0.0000
  O3     O3        0.411911907187176    0.230353969344016    0.843069063095508  0.0000
  O1     O1        0.083787202926109    0.780932836270667    0.847539496804365  0.0000
  O3     O3        0.382687178054314    0.896885772466973    0.843275575139870  0.0000
  O1     O1        0.119358389264330    0.129578667188252    0.850329253139232  0.0000
  O1     O1        0.569780779724353    0.781836997651129    0.088562411921846  0.0000
  O1     O1        0.916031147106935    0.253305176217407    0.093877681812467  0.0000
  O3     O3        0.471885544896809    0.047778503967121    0.018059179029898  0.0000
  O1     O1        0.015438620377943    0.984088970827800    0.031322702939878  0.0000
  O3     O3        0.155349512456520    0.504883624707836    0.313815313701635  0.0000
  O1     O1        0.346136464693652    0.567746007953325    0.322676914650359  0.0000
  O1     O1        0.843425328702373    0.550250113739807    0.626906981895672  0.0000
  O1     O1        0.658762675680082    0.473085746527135    0.622172548969158  0.0000
  O1     O1        0.265047385735587    0.261791608221259    0.263613448895193  0.0000
  O3     O3        0.228282174089962    0.791726566968459    0.255387858680767  0.0000
  O1     O1        0.766755208092864    0.237657210238197    0.686380510208939  0.0000
  O1     O1        0.731301277172767    0.787645632990727    0.685374995140501  0.0000
  O1     O1        0.134836874887700    0.258926214010127    0.105727673183274  0.0000
  O1     O1        0.359503107440732    0.769469209112265    0.098926341551804  0.0000
  O1     O1        0.881217578494489    0.377779445519971    0.847735571248016  0.0000
  O1     O1        0.611395027018531    0.654959127764130    0.840589061682805  0.0000
  O1     O1        0.855515833189394    0.768172483778198    0.852684307200721  0.0000
  O1     O1        0.637314385758104    0.257098621488970    0.844926116678190  0.0000
  O3     O3        0.122376048986685    0.661260521707845    0.100490172300715  0.0000
  O1     O1        0.383561858726275    0.380739330197456    0.099397793026739  0.0000
  O1     O1        0.650545225820781    0.475202749061346    0.063874043213847  0.0000
  O1     O1        0.834530813175507    0.559074542780463    0.070702246963158  0.0000
  O1     O1        0.342296427605559    0.549956386625818    0.877276880445279  0.0000
  O1     O1        0.159996618841662    0.472316607729662    0.881167640852963  0.0000
  O1     O1        0.764609307976385    0.241136770532322    0.007011825029953  0.0000
  O1     O1        0.722950657238124    0.791506774253934    0.006914941336402  0.0000
  O1     O1        0.265899351223002    0.238388754203281    0.950672071799182  0.0000
  O1     O1        0.234501936006055    0.793596521465226    0.930172688338581  0.0000
