data_c01394.vasp
_audit_creation_method             Generated by GULP
_audit_author_name                 Salvador R. G. Balestra
_symmetry_space_group_name_H-M     'P 1             '
_symmetry_Int_Tables_number        1

loop_
_symmetry_equiv_pos_site_id
_symmetry_equiv_pos_as_xyz
_cell_length_a                       17.5043
_cell_length_b                        7.8219
_cell_length_c                       10.2176
_cell_angle_alpha                   89.8944
_cell_angle_beta                    89.5194
_cell_angle_gamma                   91.4182

loop_
_atom_site_label
_atom_site_type_symbol
_atom_site_fract_x
_atom_site_fract_y
_atom_site_fract_z
_atom_site_charge
  Ge     Ge        0.052090000000021    0.000000000000000    0.372269999999958  0.0000
  Ge     Ge        0.551415368490459    0.993163400664650    0.614021238247327  0.0000
  Ge     Ge        0.552911643376447    0.984374076106424    0.124356105291186  0.0000
  Ge     Ge        0.943925568974497    0.044008222334623    0.124165879507660  0.0000
  Ge     Ge        0.052591813621111    0.988113389568107    0.871844587266266  0.0000
  Ge     Ge        0.175406223677262    0.283952799893609    0.261225253706155  0.0000
  Ge     Ge        0.330555880654574    0.762047073545751    0.261079443851083  0.0000
  Ge     Ge        0.855528268017888    0.357424541050649    0.691409622337516  0.0000
  Ge     Ge        0.650624070693998    0.681311812332585    0.693009197576509  0.0000
  Ge     Ge        0.833119267047972    0.762007985127732    0.699229282061940  0.0000
  Ge     Ge        0.675031516976198    0.276906005525694    0.689666357061443  0.0000
  Ge     Ge        0.147502047906953    0.685817481725209    0.256185806522091  0.0000
  Ge     Ge        0.359001123804583    0.360788952980449    0.258761074500631  0.0000
  Ge     Ge        0.674715472760929    0.268344628561763    0.008385160481742  0.0000
  Ge     Ge        0.827975310853018    0.747465805252356    0.014931975914666  0.0000
  Ge     Ge        0.358538650741184    0.357614641081703    0.942460121000243  0.0000
  Ge     Ge        0.154793730735296    0.680241490219206    0.936033898917715  0.0000
  Ge     Ge        0.335978361046783    0.760972330093729    0.942967863690979  0.0000
  Ge     Ge        0.176821508872257    0.277077571487934    0.945146030306523  0.0000
  Ge     Ge        0.645026670763388    0.669642225228943    0.010916066095970  0.0000
  Si     Si        0.446903040019179    0.048135494621520    0.370957076794080  0.0000
  Si     Si        0.951103849009626    0.047198283597503    0.624404078720212  0.0000
  Si     Si        0.454463902994131    0.050931134596429    0.871270454087738  0.0000
  Si     Si        0.852552975913263    0.352193591023013    0.003160014470667  0.0000
  O1     O1        0.130588574830522    0.132715753420264    0.356972361337180  0.0000
  O3     O3        0.374628024849982    0.922684979359964    0.349751353239053  0.0000
  O3     O3        0.922084836448000    0.239375177995751    0.606415239296236  0.0000
  O1     O1        0.587579928781832    0.793110214375037    0.599737329255517  0.0000
  O3     O3        0.882211217100404    0.910061041294861    0.602369644151879  0.0000
  O1     O1        0.624274144601274    0.140810665094116    0.590713792620100  0.0000
  O1     O1        0.077996597715697    0.795020556822449    0.336868733703983  0.0000
  O3     O3        0.424813242466686    0.242558126765032    0.343446193391758  0.0000
  O3     O3        0.023438362773475    0.008545996506726    0.535512626504195  0.0000
  O3     O3        0.472899272257025    0.030011123809762    0.520718112692700  0.0000
  O1     O1        0.975604097055157    0.061632310500602    0.282187192584520  0.0000
  O3     O3        0.519612055635541    0.995241953159870    0.283514454207100  0.0000
  O3     O3        0.975475638083702    0.027920800967590    0.776135654015542  0.0000
  O3     O3        0.524968121239365    0.015608263595197    0.778053663039471  0.0000
  O1     O1        0.633131082963894    0.112785440797984    0.103787154624002  0.0000
  O1     O1        0.872802372294669    0.889336640846988    0.117195380935479  0.0000
  O3     O3        0.420947385753900    0.238576410069819    0.849247297765688  0.0000
  O1     O1        0.090608020072369    0.790238523639123    0.845606336997383  0.0000
  O3     O3        0.388050270460704    0.907096414318135    0.850390666018023  0.0000
  O1     O1        0.125763396655917    0.136874750724755    0.851101641204953  0.0000
  O1     O1        0.577504337511516    0.776603777938448    0.098142424077017  0.0000
  O3     O3        0.914908504084342    0.245915439688575    0.079035553796199  0.0000
  O3     O3        0.480982323671673    0.047063279991441    0.022511686610878  0.0000
  O1     O1        0.021381243227257    0.988654674693345    0.031999756594760  0.0000
  O1     O1        0.158155689015169    0.485249077247287    0.320661623544752  0.0000
  O1     O1        0.348815822244707    0.561942212329702    0.323350071537951  0.0000
  O1     O1        0.848807017916655    0.561179776417411    0.634032832694715  0.0000
  O1     O1        0.664194510452446    0.482247059827063    0.631702575847588  0.0000
  O1     O1        0.272140745549136    0.254504143663337    0.259840785593623  0.0000
  O1     O1        0.234334690644448    0.795099852995715    0.263940557470883  0.0000
  O1     O1        0.771262424690479    0.241654779866837    0.683176986662823  0.0000
  O1     O1        0.736693571533759    0.794697126368104    0.697602914638827  0.0000
  O1     O1        0.142360764404052    0.264699995586104    0.103471912332037  0.0000
  O1     O1        0.364899177491784    0.770328559443578    0.103290891606781  0.0000
  O3     O3        0.879889803141753    0.383458761566988    0.854317981760558  0.0000
  O1     O1        0.616854850791089    0.658728199543007    0.850424532897833  0.0000
  O1     O1        0.863348109195639    0.775844564638568    0.858876746300909  0.0000
  O1     O1        0.644030851173912    0.256740659339834    0.849474644624564  0.0000
  O1     O1        0.123221101114247    0.660599547713291    0.095480161421039  0.0000
  O1     O1        0.389961199430921    0.384774228896045    0.100238700659903  0.0000
  O1     O1        0.653556425664129    0.466198121433763    0.070177020961124  0.0000
  O3     O3        0.841241908759095    0.537612171028889    0.066924574176203  0.0000
  O1     O1        0.349465372627937    0.558562128956166    0.879789519397105  0.0000
  O1     O1        0.167617741487364    0.478992507556256    0.878758281065703  0.0000
  O3     O3        0.772914833533957    0.244102952373427    0.005478012502058  0.0000
  O1     O1        0.731570469378534    0.778855626538417    0.016174263134918  0.0000
  O1     O1        0.273214443179879    0.243321591066387    0.948305257171510  0.0000
  O1     O1        0.240046979534737    0.796930422622510    0.938129074919532  0.0000
