data_c01370.vasp
_audit_creation_method             Generated by GULP
_audit_author_name                 Salvador R. G. Balestra
_symmetry_space_group_name_H-M     'P 1             '
_symmetry_Int_Tables_number        1

loop_
_symmetry_equiv_pos_site_id
_symmetry_equiv_pos_as_xyz
_cell_length_a                       17.6309
_cell_length_b                        7.8357
_cell_length_c                       10.0921
_cell_angle_alpha                   90.8129
_cell_angle_beta                    89.5358
_cell_angle_gamma                   88.6367

loop_
_atom_site_label
_atom_site_type_symbol
_atom_site_fract_x
_atom_site_fract_y
_atom_site_fract_z
_atom_site_charge
  Ge     Ge        0.052090000000021    0.000000000000000    0.372269999999958  0.0000
  Ge     Ge        0.550070634781242    0.002675382671878    0.642470754585098  0.0000
  Ge     Ge        0.544969134811166    0.005349783229929    0.155867939697601  0.0000
  Ge     Ge        0.942126802123179    0.948379081594211    0.122570154872828  0.0000
  Ge     Ge        0.443991542377490    0.935807602509581    0.897531195713493  0.0000
  Ge     Ge        0.048778464765447    0.995186339881024    0.867526949560241  0.0000
  Ge     Ge        0.145959717610032    0.317418957475387    0.300896941446741  0.0000
  Ge     Ge        0.348989715020940    0.645574631396637    0.286017393689602  0.0000
  Ge     Ge        0.828939359358188    0.239555602312820    0.726143017191800  0.0000
  Ge     Ge        0.672669599455390    0.719184328512337    0.720973128047687  0.0000
  Ge     Ge        0.854223357640342    0.642293054303466    0.732545548089014  0.0000
  Ge     Ge        0.648012756614210    0.316897805855165    0.713488833308268  0.0000
  Ge     Ge        0.327717177211675    0.245283983813499    0.296635358052423  0.0000
  Ge     Ge        0.639274365417250    0.315561298334262    0.036516838126954  0.0000
  Ge     Ge        0.846796213145985    0.632728392193659    0.053470857917741  0.0000
  Ge     Ge        0.321653529542656    0.225401690823032    0.976219171053765  0.0000
  Ge     Ge        0.166645678431321    0.699112660656418    0.979500180910598  0.0000
  Ge     Ge        0.346236764725472    0.624295116202546    0.962022800862832  0.0000
  Ge     Ge        0.667370682096587    0.719827343999368    0.042042283573633  0.0000
  Ge     Ge        0.819114785415080    0.233010508005457    0.048482181616948  0.0000
  Si     Si        0.440915665136371    0.957479053309466    0.404726289103913  0.0000
  Si     Si        0.946926109953261    0.950478437381217    0.619108340747297  0.0000
  Si     Si        0.170121958351448    0.713715227539003    0.293356938081633  0.0000
  Si     Si        0.144117913887518    0.299178736308528    0.988963404955539  0.0000
  O1     O1        0.085512888542312    0.202089519351173    0.396411556076147  0.0000
  O3     O3        0.413896673556626    0.769117700923032    0.366616246631433  0.0000
  O3     O3        0.876985973657613    0.083376345179829    0.635019372342084  0.0000
  O1     O1        0.623989006003701    0.858010016246211    0.621646563487601  0.0000
  O3     O3        0.922159547967578    0.760238794925784    0.653386772758233  0.0000
  O1     O1        0.584872929982726    0.202326771304746    0.620894563487604  0.0000
  O3     O3        0.126325603878884    0.851851254472422    0.385533436406956  0.0000
  O3     O3        0.372457791065631    0.093067478233737    0.391790677034010  0.0000
  O3     O3        0.974453193220618    0.952279325149079    0.466599173022568  0.0000
  O3     O3        0.469312983540258    0.956966576177786    0.555774604711844  0.0000
  O1     O1        0.019988033209950    0.993040953730904    0.211649848241191  0.0000
  O3     O3        0.514164731378458    0.009639012778911    0.319686628197684  0.0000
  O3     O3        0.019566080352389    0.005456726955095    0.703877100860778  0.0000
  O1     O1        0.520447123076773    0.988034893909395    0.806202685206406  0.0000
  O1     O1        0.570011214643420    0.210145723935773    0.118767722991474  0.0000
  O1     O1        0.908803255183722    0.746567885743705    0.147261566498073  0.0000
  O1     O1        0.367336072270270    0.075141387462892    0.880746655698141  0.0000
  O1     O1        0.115443965985928    0.833455628715228    0.882331986299207  0.0000
  O1     O1        0.410541245708435    0.733635020353329    0.870363390353827  0.0000
  O3     O3        0.085212078640159    0.193863235309398    0.903190947540676  0.0000
  O1     O1        0.622255302407527    0.869454353325851    0.140669961729162  0.0000
  O1     O1        0.867466599878590    0.092042913921585    0.145157183846214  0.0000
  O1     O1        0.471379288999701    0.939410325698257    0.061684610331317  0.0000
  O1     O1        0.969549231506992    0.957000907445922    0.957763160847208  0.0000
  O3     O3        0.155106393301474    0.526375910169142    0.351917353245758  0.0000
  O1     O1        0.345654168943827    0.447498958296646    0.355667349355236  0.0000
  O1     O1        0.845953343612245    0.440172510250022    0.665644112145619  0.0000
  O1     O1        0.660431092209498    0.516918541482403    0.655183066231852  0.0000
  O1     O1        0.232345180553675    0.213937692429133    0.305413275815871  0.0000
  O3     O3        0.259713901266103    0.744681411751406    0.290746440037986  0.0000
  O1     O1        0.733362853706232    0.205185854044124    0.716353816703360  0.0000
  O1     O1        0.768464028761676    0.751842950684461    0.724946668519236  0.0000
  O3     O3        0.113592478302939    0.316906584327076    0.139142066953500  0.0000
  O1     O1        0.375236518247608    0.612957063384475    0.124864152941434  0.0000
  O1     O1        0.854960383391089    0.226728283467211    0.888982258243056  0.0000
  O1     O1        0.636959877608613    0.735094945923277    0.880479975496564  0.0000
  O1     O1        0.880457028856161    0.611417153340337    0.893077164153299  0.0000
  O1     O1        0.614415352521827    0.335980639127420    0.873504971447715  0.0000
  O3     O3        0.138409818583023    0.725325627350154    0.143840739354143  0.0000
  O1     O1        0.357492799366898    0.221618583781611    0.134863169533948  0.0000
  O1     O1        0.650504015079282    0.517504293280997    0.099502068036069  0.0000
  O1     O1        0.831444725714822    0.435566146360574    0.114746120826678  0.0000
  O1     O1        0.337202392892821    0.420528259450894    0.905111219046301  0.0000
  O3     O3        0.154515748724306    0.487159567225138    0.931482510850619  0.0000
  O1     O1        0.723513552199037    0.198923755139780    0.044677883409244  0.0000
  O1     O1        0.763066444387127    0.750349085786508    0.043558122217878  0.0000
  O3     O3        0.224803772890892    0.196729085400503    0.988366565185052  0.0000
  O1     O1        0.260963102488431    0.737095491682652    0.962634227162438  0.0000
