data_c01352.vasp
_audit_creation_method             Generated by GULP
_audit_author_name                 Salvador R. G. Balestra
_symmetry_space_group_name_H-M     'P 1             '
_symmetry_Int_Tables_number        1

loop_
_symmetry_equiv_pos_site_id
_symmetry_equiv_pos_as_xyz
_cell_length_a                       17.5837
_cell_length_b                        7.8351
_cell_length_c                       10.1765
_cell_angle_alpha                   90.5731
_cell_angle_beta                    90.1655
_cell_angle_gamma                   91.4566

loop_
_atom_site_label
_atom_site_type_symbol
_atom_site_fract_x
_atom_site_fract_y
_atom_site_fract_z
_atom_site_charge
  Ge     Ge        0.052090000000021    0.000000000000000    0.372269999999958  0.0000
  Ge     Ge        0.552366578072442    0.000119998291960    0.633911215038318  0.0000
  Ge     Ge        0.551239227784319    0.009107139468025    0.142035861990117  0.0000
  Ge     Ge        0.945548786457921    0.069836374051451    0.118371544125180  0.0000
  Ge     Ge        0.444696119727913    0.055292505208585    0.887894875148336  0.0000
  Ge     Ge        0.050392974088271    0.004748818953177    0.864694575523907  0.0000
  Ge     Ge        0.175518353332225    0.283073823938368    0.289242257710852  0.0000
  Ge     Ge        0.331169829161430    0.759443522627368    0.281916886655812  0.0000
  Ge     Ge        0.856171566875112    0.365908689266520    0.731931270243581  0.0000
  Ge     Ge        0.650800711689559    0.689925676699890    0.708960824504870  0.0000
  Ge     Ge        0.831092050543241    0.768662591817570    0.722487283148371  0.0000
  Ge     Ge        0.674269348736510    0.286055074956174    0.718657020344986  0.0000
  Ge     Ge        0.148420241476837    0.685966201436431    0.296751888407408  0.0000
  Ge     Ge        0.356930168938854    0.357171083559738    0.275417720444294  0.0000
  Ge     Ge        0.668494436786070    0.304700519829669    0.035155155656757  0.0000
  Ge     Ge        0.822535020845301    0.781825586626305    0.041911898207190  0.0000
  Ge     Ge        0.345309398133254    0.366479973543419    0.956720942561531  0.0000
  Ge     Ge        0.141507346622864    0.687672015644014    0.980212197544330  0.0000
  Ge     Ge        0.323154352342330    0.765034348504317    0.963819648863522  0.0000
  Ge     Ge        0.849808197451202    0.384180845205821    0.050961922565927  0.0000
  Si     Si        0.448072975824084    0.047740191162552    0.388082605407140  0.0000
  Si     Si        0.948681587991934    0.057058725641303    0.617079120910941  0.0000
  Si     Si        0.168222521035575    0.289759729849818    0.978101058112822  0.0000
  Si     Si        0.645550763623066    0.702485693296845    0.022379455207713  0.0000
  O1     O1        0.127465123934984    0.142810950961670    0.386996117218604  0.0000
  O3     O3        0.376965545146761    0.917875268661437    0.372864089368801  0.0000
  O3     O3        0.923227659963719    0.247619325638764    0.650433357835671  0.0000
  O1     O1        0.585957845156279    0.797475154744865    0.617586801980055  0.0000
  O3     O3        0.879763263155894    0.922004769164056    0.634276043212269  0.0000
  O1     O1        0.627133866060205    0.143357931474147    0.617630382085169  0.0000
  O1     O1        0.086858962172503    0.800085076025069    0.392771145065104  0.0000
  O3     O3        0.425696838933554    0.239203002941635    0.351908497112520  0.0000
  O3     O3        0.974476535739788    0.048751619182233    0.465581050307781  0.0000
  O3     O3        0.474677146567787    0.044092498814201    0.539418366082738  0.0000
  O1     O1        0.020796382305261    0.017697038489580    0.211571999918436  0.0000
  O3     O3        0.520312707278692    0.989758213193802    0.303202009343363  0.0000
  O3     O3        0.022602741923240    0.009045973307764    0.701118615264250  0.0000
  O1     O1        0.521803572579139    0.018718618685566    0.794612015212664  0.0000
  O1     O1        0.620756896867162    0.166232658729095    0.135999515996436  0.0000
  O1     O1        0.867749011574081    0.932168642499317    0.136413756734765  0.0000
  O1     O1        0.404456563965156    0.250384580940365    0.860990744743635  0.0000
  O1     O1        0.077070693112255    0.798152741211774    0.891093588189378  0.0000
  O1     O1        0.372072582720589    0.905760244288437    0.867769508713053  0.0000
  O3     O3        0.125599517829808    0.147988103732566    0.889405435951800  0.0000
  O3     O3        0.582720842544429    0.808614743529149    0.097944172747557  0.0000
  O1     O1        0.912661923145993    0.272362391291546    0.143478905210265  0.0000
  O1     O1        0.474140487538182    0.058610207676085    0.050017520693610  0.0000
  O1     O1        0.973504733563715    0.057229454286805    0.955775381903199  0.0000
  O1     O1        0.160691318690496    0.484879952851254    0.352378964011318  0.0000
  O1     O1        0.349430757225809    0.559189310573607    0.341608290670099  0.0000
  O1     O1        0.847703683915421    0.565112879665708    0.664685395748307  0.0000
  O1     O1        0.661366746104249    0.486613429977671    0.654231383226739  0.0000
  O1     O1        0.270933170170818    0.248389454681698    0.288900534383754  0.0000
  O1     O1        0.235310879743251    0.792105140292020    0.289574302929005  0.0000
  O1     O1        0.770266942630620    0.255305224114650    0.725765043642450  0.0000
  O1     O1        0.735684295560435    0.803566274206415    0.706756964408508  0.0000
  O3     O3        0.140333048351547    0.275532019461881    0.128783604779953  0.0000
  O1     O1        0.359694265309974    0.773663065533846    0.121302505022794  0.0000
  O1     O1        0.882811522963303    0.398334614073841    0.891805522607736  0.0000
  O3     O3        0.621089121440541    0.676112329524007    0.871319677966461  0.0000
  O1     O1        0.857865685626358    0.785101239531032    0.884186554065877  0.0000
  O1     O1        0.638178470285448    0.272178012491611    0.875979730346329  0.0000
  O1     O1        0.111601617193759    0.679840447598524    0.139760740919310  0.0000
  O1     O1        0.380653407026131    0.385298069745673    0.114502718762053  0.0000
  O3     O3        0.654966926692519    0.516081038280827    0.083784271965386  0.0000
  O1     O1        0.838896050761452    0.585637004178222    0.110764164921349  0.0000
  O1     O1        0.335049401619720    0.564837933388850    0.895329966533309  0.0000
  O3     O3        0.151780451209460    0.479125453672058    0.924944317842036  0.0000
  O1     O1        0.764125752782783    0.272245774800298    0.043859237148567  0.0000
  O3     O3        0.725305862752656    0.809463703715070    0.030745144332132  0.0000
  O3     O3        0.257960024710231    0.259382298128398    0.973695588913345  0.0000
  O1     O1        0.227377410724780    0.796933655031567    0.971354065857825  0.0000
