data_c01320.vasp
_audit_creation_method             Generated by GULP
_audit_author_name                 Salvador R. G. Balestra
_symmetry_space_group_name_H-M     'P 1             '
_symmetry_Int_Tables_number        1

loop_
_symmetry_equiv_pos_site_id
_symmetry_equiv_pos_as_xyz
_cell_length_a                       17.5829
_cell_length_b                        7.8174
_cell_length_c                       10.0939
_cell_angle_alpha                   89.5880
_cell_angle_beta                    90.7720
_cell_angle_gamma                   91.0405

loop_
_atom_site_label
_atom_site_type_symbol
_atom_site_fract_x
_atom_site_fract_y
_atom_site_fract_z
_atom_site_charge
  Ge     Ge        0.052090000000021    0.000000000000000    0.372269999999958  0.0000
  Ge     Ge        0.937606474899593    0.050326859480973    0.609503774181866  0.0000
  Ge     Ge        0.541590298247285    0.001328745379299    0.119390331935044  0.0000
  Ge     Ge        0.936435182656430    0.052620694787259    0.127579658682951  0.0000
  Ge     Ge        0.440147859464724    0.062996209714942    0.853880163559823  0.0000
  Ge     Ge        0.037682847330808    0.994256317924801    0.871265446407804  0.0000
  Ge     Ge        0.166186269073906    0.296969360865975    0.258811805319984  0.0000
  Ge     Ge        0.324326491354784    0.755494587076892    0.256479493664275  0.0000
  Ge     Ge        0.839405409978502    0.364463683255140    0.679609217330581  0.0000
  Ge     Ge        0.632639143864874    0.692932904516550    0.681006046224778  0.0000
  Ge     Ge        0.814151100779575    0.768252963744749    0.683256558263363  0.0000
  Ge     Ge        0.657891362549474    0.288336306987978    0.684392808115887  0.0000
  Ge     Ge        0.663194996979034    0.283483335592464    0.006033093254179  0.0000
  Ge     Ge        0.814469468264661    0.770860189493917    0.004559623197931  0.0000
  Ge     Ge        0.340486110952853    0.366715526296539    0.934166551767001  0.0000
  Ge     Ge        0.141699994761012    0.687390963756272    0.937547798557760  0.0000
  Ge     Ge        0.319063215124956    0.775023413088074    0.936670638633297  0.0000
  Ge     Ge        0.162621315064952    0.280392746857242    0.940989620008570  0.0000
  Ge     Ge        0.633684987296540    0.687822963018789    0.001797284019239  0.0000
  Ge     Ge        0.843794063555791    0.366169378371583    0.001671338246397  0.0000
  Si     Si        0.434848286543102    0.048546632125788    0.364265741492399  0.0000
  Si     Si        0.541172261107445    0.007316234075275    0.603819210397438  0.0000
  Si     Si        0.144971992475886    0.689486288169302    0.254943400085123  0.0000
  Si     Si        0.346119759577832    0.360616598292602    0.248108157651013  0.0000
  O1     O1        0.123528023164016    0.150634062995420    0.360767098490460  0.0000
  O3     O3        0.368330168798404    0.906475810617352    0.356205856061536  0.0000
  O1     O1        0.902202922852941    0.251794926600933    0.586308079296596  0.0000
  O3     O3        0.570717898441684    0.816433134933984    0.585598965349119  0.0000
  O1     O1        0.864346761191072    0.905352796234542    0.583335843023547  0.0000
  O3     O3        0.609010154148156    0.144407689956057    0.583315974715303  0.0000
  O3     O3        0.084485590299531    0.799730425718783    0.333147773697775  0.0000
  O2     O2        0.404200941733275    0.236944276597916    0.327201580858976  0.0000
  O1     O1        0.020374519667620    0.002746601715516    0.533442104026176  0.0000
  O2     O2        0.466356104871417    0.050980798327816    0.516353868443231  0.0000
  O1     O1        0.969270253744785    0.047882008323024    0.288895000792100  0.0000
  O3     O3        0.507180008878548    0.001571022718456    0.279090724247049  0.0000
  O1     O1        0.959987228268365    0.035834026200281    0.777740966022516  0.0000
  O3     O3        0.516679191376346    0.025070905820652    0.757162827540810  0.0000
  O1     O1        0.619677330600965    0.134942494099996    0.105372606344983  0.0000
  O1     O1        0.859397228995452    0.917352646774501    0.104577432263066  0.0000
  O1     O1        0.402673855359726    0.263429261839220    0.835567681269467  0.0000
  O1     O1        0.073802306665499    0.792713743481424    0.849215116908064  0.0000
  O1     O1        0.369627026180759    0.909111803204611    0.836236959395313  0.0000
  O1     O1        0.109476442288690    0.144106675440897    0.846015997655930  0.0000
  O1     O1        0.567232344677426    0.794399505144063    0.088901568768569  0.0000
  O1     O1        0.911149495526435    0.259371476286449    0.091128568588667  0.0000
  O1     O1        0.469889757517430    0.063590761367101    0.016815056673125  0.0000
  O1     O1        0.012241132564016    0.993890029292187    0.035611411477460  0.0000
  O3     O3        0.150460710063375    0.500814144099609    0.318552702780043  0.0000
  O3     O3        0.343583117869249    0.549010726839779    0.311493308937401  0.0000
  O1     O1        0.825988009688605    0.565804644160198    0.619810866608188  0.0000
  O1     O1        0.642672113155649    0.491330483712042    0.620765483430366  0.0000
  O3     O3        0.263371577786338    0.270433320680449    0.251538726596461  0.0000
  O3     O3        0.227132538375848    0.784727005706264    0.261190450369846  0.0000
  O1     O1        0.753640531452075    0.252235114132131    0.682207969512652  0.0000
  O1     O1        0.718309484002341    0.803669030203565    0.683937800481999  0.0000
  O1     O1        0.130646110476668    0.265025511944787    0.102093068425616  0.0000
  O1     O1        0.353778319090370    0.788919700181679    0.097609571423533  0.0000
  O1     O1        0.872346007820449    0.384501712284331    0.840018728738961  0.0000
  O1     O1        0.601550006889210    0.670294262671726    0.840378959971785  0.0000
  O1     O1        0.847140305931302    0.783473932098534    0.844644116393456  0.0000
  O1     O1        0.628094769109443    0.273427481800954    0.845756431156849  0.0000
  O3     O3        0.118578871753638    0.663216913874820    0.103911473536783  0.0000
  O3     O3        0.372418982994961    0.386041044288004    0.097987799942048  0.0000
  O1     O1        0.647900834568111    0.486895395853314    0.064390176994260  0.0000
  O1     O1        0.830968860968457    0.566762452743404    0.063505166528788  0.0000
  O1     O1        0.326788352917142    0.568825998040918    0.878100061137305  0.0000
  O1     O1        0.152719420162217    0.486372766705337    0.879551192558748  0.0000
  O1     O1        0.759227725415752    0.250998779591626    0.004064833136779  0.0000
  O1     O1        0.718237783422107    0.802806237736260    0.002508974141363  0.0000
  O1     O1        0.258248888183278    0.243121829041412    0.937398605486619  0.0000
  O1     O1        0.223475953996087    0.812774802091950    0.934328085655594  0.0000
