data_c01321.vasp
_audit_creation_method             Generated by GULP
_audit_author_name                 Salvador R. G. Balestra
_symmetry_space_group_name_H-M     'P 1             '
_symmetry_Int_Tables_number        1

loop_
_symmetry_equiv_pos_site_id
_symmetry_equiv_pos_as_xyz
_cell_length_a                       17.7361
_cell_length_b                        7.7750
_cell_length_c                       10.4386
_cell_angle_alpha                   89.6701
_cell_angle_beta                    91.0676
_cell_angle_gamma                   89.9619

loop_
_atom_site_label
_atom_site_type_symbol
_atom_site_fract_x
_atom_site_fract_y
_atom_site_fract_z
_atom_site_charge
  Ge     Ge        0.052090000000021    0.000000000000000    0.372269999999958  0.0000
  Ge     Ge        0.940768466177242    0.012655848573972    0.613112463442124  0.0000
  Ge     Ge        0.549299999802766    0.040068563303863    0.113180319192884  0.0000
  Ge     Ge        0.941829138622319    0.010818278622422    0.120206573358315  0.0000
  Ge     Ge        0.443883125552775    0.041737694504726    0.857675145417971  0.0000
  Ge     Ge        0.044208082967920    0.023195126249139    0.872533530744344  0.0000
  Ge     Ge        0.173045216423420    0.282924751975071    0.253714838055868  0.0000
  Ge     Ge        0.334018793620399    0.745105270102845    0.260702361529479  0.0000
  Ge     Ge        0.818987493539580    0.290343787440140    0.691837310777988  0.0000
  Ge     Ge        0.659189521068376    0.757884167859576    0.690252993032202  0.0000
  Ge     Ge        0.840553342571719    0.696717722208617    0.683032610438382  0.0000
  Ge     Ge        0.151796268229912    0.690994334158165    0.270707815890544  0.0000
  Ge     Ge        0.641297008542002    0.358529854594211    0.002528126562118  0.0000
  Ge     Ge        0.848392417005611    0.696361093043856    0.995709276876605  0.0000
  Ge     Ge        0.348098725976443    0.359800233537181    0.941518220667776  0.0000
  Ge     Ge        0.144732636528716    0.706259623558639    0.958266123508965  0.0000
  Ge     Ge        0.323920522171202    0.771273006003635    0.950814026619812  0.0000
  Ge     Ge        0.169999993991233    0.295637979031554    0.941661907523338  0.0000
  Ge     Ge        0.669151196544472    0.769947749759513    0.000247089722051  0.0000
  Ge     Ge        0.819777356324424    0.286103613308287    0.002939535353866  0.0000
  Si     Si        0.447635062009753    0.034165734457475    0.357882779059178  0.0000
  Si     Si        0.546543546923066    0.044339656114229    0.609300679555279  0.0000
  Si     Si        0.641397073459794    0.353658247371612    0.698785105231471  0.0000
  Si     Si        0.350533623498906    0.341046396629428    0.246654824871315  0.0000
  O1     O1        0.127475090368969    0.131265014065634    0.341085908388012  0.0000
  O3     O3        0.387780333414718    0.880042820277466    0.356684878724130  0.0000
  O1     O1        0.865897468674521    0.153145544831035    0.594460666269434  0.0000
  O3     O3        0.608310058202894    0.895883649466594    0.589866659954343  0.0000
  O1     O1        0.903256793752492    0.811241386586392    0.592953040979797  0.0000
  O2     O2        0.585176648167998    0.232813157198628    0.614895058364854  0.0000
  O1     O1        0.088127798830942    0.795993063138267    0.363661441939097  0.0000
  O2     O2        0.409134487039169    0.216577771377149    0.321690949217706  0.0000
  O1     O1        0.018523352587669    0.042802253048493    0.522499904589396  0.0000
  O2     O2        0.481442654064779    0.048325613389148    0.501363045153152  0.0000
  O1     O1        0.973720732389609    0.026462085384177    0.275701227245761  0.0000
  O3     O3        0.516282774536132    0.000728496816722    0.264699147312082  0.0000
  O1     O1        0.969929577576401    0.044417738614203    0.769840532932337  0.0000
  O3     O3        0.507910846895189    0.998767781881848    0.742630780774469  0.0000
  O1     O1        0.574406068683414    0.251108518308086    0.086773419010419  0.0000
  O1     O1        0.915835172935683    0.803304569823839    0.082704993578633  0.0000
  O1     O1        0.414601695381391    0.252160420301730    0.856671046603187  0.0000
  O1     O1        0.079772064428834    0.817444047161759    0.868040779057367  0.0000
  O1     O1        0.365499461849612    0.911493548346803    0.848586297515704  0.0000
  O1     O1        0.116875496509566    0.165358485157242    0.845465787235792  0.0000
  O1     O1        0.628356802432133    0.914423551521011    0.098553823021389  0.0000
  O1     O1        0.865259848079822    0.143743102478668    0.101884618897869  0.0000
  O1     O1        0.482756173058949    0.980182115638401    0.002800856966219  0.0000
  O1     O1        0.014005197501749    0.071560685853138    0.024057186117998  0.0000
  O1     O1        0.157486982715570    0.481175100034709    0.319697967137233  0.0000
  O3     O3        0.346748421790847    0.530108274961918    0.306637257590322  0.0000
  O1     O1        0.833353310733559    0.491814651451448    0.628263556960653  0.0000
  O3     O3        0.646643186391797    0.544770773588156    0.641604381124477  0.0000
  O3     O3        0.269537330138895    0.248857456620133    0.250145656096552  0.0000
  O1     O1        0.239735512625575    0.785536229142075    0.277453830296893  0.0000
  O3     O3        0.722411891832297    0.260169665153853    0.699976111594232  0.0000
  O1     O1        0.753935468635478    0.798271952786877    0.679963763348629  0.0000
  O1     O1        0.141432010527392    0.278440023342282    0.098249530112577  0.0000
  O1     O1        0.359903342109320    0.776229298335564    0.105812621913199  0.0000
  O1     O1        0.850858569547184    0.271838982044514    0.848043580008510  0.0000
  O1     O1        0.633168019588489    0.783976938467174    0.845855772333180  0.0000
  O1     O1        0.874789615984477    0.687597681905534    0.838409852805769  0.0000
  O3     O3        0.611331006250011    0.365204729906784    0.842550820129398  0.0000
  O1     O1        0.117048923937592    0.699255925805080    0.115470415682601  0.0000
  O3     O3        0.377508581679282    0.358646252294974    0.101471448044938  0.0000
  O1     O1        0.653462927957881    0.563164932921190    0.055861319136297  0.0000
  O1     O1        0.836593963639273    0.493216729139246    0.055009753568729  0.0000
  O1     O1        0.336651880896298    0.565950885775689    0.891220631046591  0.0000
  O1     O1        0.156842760010701    0.506967503546565    0.895396090518379  0.0000
  O1     O1        0.724882702401294    0.247560729740021    0.009269186910387  0.0000
  O1     O1        0.764237072979438    0.806652046009988    0.997519094672662  0.0000
  O1     O1        0.264055380986272    0.249824497246126    0.931256035401641  0.0000
  O1     O1        0.229554387448457    0.814398802739622    0.959996619168219  0.0000
