data_c01341.vasp
_audit_creation_method             Generated by GULP
_audit_author_name                 Salvador R. G. Balestra
_symmetry_space_group_name_H-M     'P 1             '
_symmetry_Int_Tables_number        1

loop_
_symmetry_equiv_pos_site_id
_symmetry_equiv_pos_as_xyz
_cell_length_a                       17.6745
_cell_length_b                        7.8332
_cell_length_c                       10.4623
_cell_angle_alpha                   89.6933
_cell_angle_beta                    90.4413
_cell_angle_gamma                   90.3213

loop_
_atom_site_label
_atom_site_type_symbol
_atom_site_fract_x
_atom_site_fract_y
_atom_site_fract_z
_atom_site_charge
  Ge     Ge        0.052090000000021    0.000000000000000    0.372269999999958  0.0000
  Ge     Ge        0.945118953857072    0.997841686260651    0.622296059966955  0.0000
  Ge     Ge        0.552320804688793    0.969203081038012    0.121434266189806  0.0000
  Ge     Ge        0.945039077938007    0.001987810029729    0.122697313894449  0.0000
  Ge     Ge        0.052407314863627    0.998421742643300    0.876213373825443  0.0000
  Ge     Ge        0.153326038763664    0.309857123402794    0.259293059190393  0.0000
  Ge     Ge        0.353995153916789    0.663271612428844    0.264182884510932  0.0000
  Ge     Ge        0.843051147830304    0.309768638910549    0.696241992341842  0.0000
  Ge     Ge        0.640440464427088    0.653991692845152    0.702279417226909  0.0000
  Ge     Ge        0.821761071457842    0.716221285143082    0.695210666146357  0.0000
  Ge     Ge        0.661549877094731    0.246453674906894    0.704284165347252  0.0000
  Ge     Ge        0.173900271713736    0.718761690795767    0.260859503356110  0.0000
  Ge     Ge        0.334476241304250    0.253637645415695    0.262093226848419  0.0000
  Ge     Ge        0.670872004864270    0.246148666635710    0.013685773905779  0.0000
  Ge     Ge        0.823259155028226    0.723278193787603    0.005347665883953  0.0000
  Ge     Ge        0.337229546883962    0.270319743969874    0.952500229073655  0.0000
  Ge     Ge        0.174517690317749    0.719554189027675    0.950355651942822  0.0000
  Ge     Ge        0.153837326762440    0.315677127440405    0.946820040790739  0.0000
  Ge     Ge        0.642453287406233    0.651061423691969    0.012907591016601  0.0000
  Ge     Ge        0.851772816990256    0.317705967442435    0.006536159151178  0.0000
  Si     Si        0.449129315245442    0.972625509925652    0.368438501234477  0.0000
  Si     Si        0.544415656451914    0.963809885700740    0.620760865186629  0.0000
  Si     Si        0.446792479344810    0.984985617460527    0.873070449641113  0.0000
  Si     Si        0.353671795038978    0.670462081890880    0.960891457983079  0.0000
  O1     O1        0.087619106743207    0.201398140848221    0.347053521355552  0.0000
  O3     O3        0.420539017409063    0.779927945645166    0.347496667107643  0.0000
  O1     O1        0.905035118124579    0.195768877437205    0.605425180705285  0.0000
  O3     O3        0.578380050116742    0.775789998985406    0.611237953962405  0.0000
  O1     O1        0.874036084204099    0.849496273562389    0.600246952450545  0.0000
  O3     O3        0.611033732269749    0.102989932681904    0.611772608861452  0.0000
  O1     O1        0.123029862209734    0.855159666777143    0.351974092248675  0.0000
  O3     O3        0.380586271610725    0.104274234852545    0.354781908844989  0.0000
  O1     O1        0.021922400936077    0.976935901887104    0.527120126603912  0.0000
  O2     O2        0.482322789889108    0.993033859882013    0.510968568156383  0.0000
  O1     O1        0.973530790860993    0.969854103044402    0.277957527639066  0.0000
  O3     O3        0.514341575640065    0.014713751925132    0.267863969625596  0.0000
  O1     O1        0.977661383308465    0.967639218849198    0.777103998243490  0.0000
  O2     O2        0.505669419692170    0.987968129839205    0.758450374589771  0.0000
  O1     O1        0.631011867056941    0.096906979467506    0.110672882432680  0.0000
  O1     O1        0.868494030495025    0.871397696209243    0.096774815073317  0.0000
  O3     O3        0.384373061570921    0.131503900024941    0.853485972161053  0.0000
  O1     O1        0.128059306658773    0.861683710463807    0.856131115508882  0.0000
  O2     O2        0.408959248992911    0.795983771333434    0.881180699207174  0.0000
  O1     O1        0.090205726095522    0.199896523962617    0.858917623288223  0.0000
  O1     O1        0.579178769915249    0.761206121582065    0.104300239099497  0.0000
  O1     O1        0.918061680244289    0.209899237214182    0.094439775527134  0.0000
  O3     O3        0.488979560971006    0.030948569290075    0.004085762557257  0.0000
  O1     O1        0.021179350313167    0.957100384394099    0.028901365418962  0.0000
  O1     O1        0.163306019464089    0.512561281319325    0.316234834513095  0.0000
  O1     O1        0.347866722994495    0.458346488311759    0.319516808377255  0.0000
  O1     O1        0.831676295160578    0.511544465107567    0.637990380791475  0.0000
  O1     O1        0.647747364924864    0.450683372817439    0.645498703065676  0.0000
  O1     O1        0.239644046030772    0.208359996715527    0.264317571000765  0.0000
  O1     O1        0.268842588613343    0.765234708946078    0.270616605566914  0.0000
  O1     O1        0.756850110017711    0.205089996110215    0.698648232435955  0.0000
  O1     O1        0.726686069348042    0.757648467537851    0.696944910968283  0.0000
  O1     O1        0.123363979550636    0.314638544399532    0.102818967434704  0.0000
  O3     O3        0.383517996322631    0.657826196816434    0.106057611220447  0.0000
  O1     O1        0.879448481396428    0.321712637187038    0.849161192331459  0.0000
  O1     O1        0.610274292968841    0.642965416764920    0.857462499325161  0.0000
  O1     O1        0.854379366829852    0.730831857807840    0.850292292578253  0.0000
  O1     O1        0.634308225244255    0.235793897650214    0.860871894785925  0.0000
  O1     O1        0.143007932685177    0.728924744331765    0.105417460317198  0.0000
  O1     O1        0.366694218171049    0.247786150014272    0.108058713549557  0.0000
  O1     O1        0.654846046851809    0.449229467480249    0.071106092889690  0.0000
  O1     O1        0.841615047945235    0.520446737716052    0.063161192779160  0.0000
  O3     O3        0.350774239331269    0.481610785453547    0.902492446684872  0.0000
  O1     O1        0.158278744628146    0.519431487667682    0.889470405391525  0.0000
  O1     O1        0.766299968842217    0.212013678218137    0.008993826072051  0.0000
  O1     O1        0.727812296083296    0.758087003341051    0.009192113654691  0.0000
  O1     O1        0.242543253583732    0.225657818166422    0.944668813639887  0.0000
  O3     O3        0.271088547925192    0.754765915740846    0.959697094047188  0.0000
