data_c01383.vasp
_audit_creation_method             Generated by GULP
_audit_author_name                 Salvador R. G. Balestra
_symmetry_space_group_name_H-M     'P 1             '
_symmetry_Int_Tables_number        1

loop_
_symmetry_equiv_pos_site_id
_symmetry_equiv_pos_as_xyz
_cell_length_a                       17.5200
_cell_length_b                        7.8479
_cell_length_c                       10.0769
_cell_angle_alpha                   88.8161
_cell_angle_beta                    90.5562
_cell_angle_gamma                   88.4246

loop_
_atom_site_label
_atom_site_type_symbol
_atom_site_fract_x
_atom_site_fract_y
_atom_site_fract_z
_atom_site_charge
  Ge     Ge        0.052090000000021    0.000000000000000    0.372269999999958  0.0000
  Ge     Ge        0.555269285914327    0.016530445970566    0.595418079448172  0.0000
  Ge     Ge        0.545874698217968    0.012847182825352    0.102818075039653  0.0000
  Ge     Ge        0.949027563697181    0.949243787007326    0.111500674621434  0.0000
  Ge     Ge        0.442472285221856    0.957792231520250    0.841652681536639  0.0000
  Ge     Ge        0.048169314127338    0.013414184720481    0.849226875617021  0.0000
  Ge     Ge        0.149465831421543    0.312418881645069    0.293132983772251  0.0000
  Ge     Ge        0.355369820890629    0.638787942677518    0.284906763171691  0.0000
  Ge     Ge        0.831270990858005    0.276226131792170    0.708330043560646  0.0000
  Ge     Ge        0.644233082579233    0.337601945369310    0.706106104400392  0.0000
  Ge     Ge        0.172957384493317    0.716067450122854    0.288756842067439  0.0000
  Ge     Ge        0.331950084951402    0.236570291752239    0.283522817875613  0.0000
  Ge     Ge        0.645952663850000    0.319549244773310    0.027191311203508  0.0000
  Ge     Ge        0.848491271340174    0.645682517810731    0.040084032338476  0.0000
  Ge     Ge        0.322848517752257    0.240212540750237    0.961401741095083  0.0000
  Ge     Ge        0.170403011816467    0.726396661959259    0.967236831775144  0.0000
  Ge     Ge        0.352484602191653    0.640917138780014    0.963858939537907  0.0000
  Ge     Ge        0.140853760511389    0.322807360160191    0.971021749000116  0.0000
  Ge     Ge        0.669691473751072    0.725102287380288    0.030747950044806  0.0000
  Ge     Ge        0.826982968648814    0.240955113216293    0.027951277968802  0.0000
  Si     Si        0.449057300236924    0.947944193230017    0.354682987437908  0.0000
  Si     Si        0.938269856038256    0.976608617025469    0.603732640486859  0.0000
  Si     Si        0.668107236583919    0.728074462223912    0.718251464802072  0.0000
  Si     Si        0.848005510123116    0.665569993827555    0.726100218849155  0.0000
  O1     O1        0.088925075388514    0.197603705255928    0.391887539184093  0.0000
  O3     O3        0.417943898736671    0.759376424292350    0.377300427867826  0.0000
  O3     O3        0.878591820260567    0.133815357491277    0.607545193362909  0.0000
  O3     O3        0.634180708725987    0.885431843342025    0.632254706638230  0.0000
  O2     O2        0.898827050227942    0.801831094142918    0.648724511104448  0.0000
  O1     O1        0.583574032143416    0.222344721958359    0.610273746202810  0.0000
  O1     O1        0.124188030241719    0.849099623832709    0.392838500470202  0.0000
  O3     O3        0.383095812002168    0.089660741330286    0.382364828498689  0.0000
  O3     O3        0.968454839960510    0.958758792481743    0.454306585177662  0.0000
  O3     O3        0.526920479547552    0.982129550286480    0.432334023075148  0.0000
  O1     O1        0.025988882459840    0.988962692292572    0.206164461270098  0.0000
  O3     O3        0.468063810668185    0.970026675664577    0.197803550221830  0.0000
  O3     O3        0.015354708704884    0.009990890798310    0.686127161487502  0.0000
  O1     O1        0.474967390948291    0.970273481895651    0.681723552255257  0.0000
  O1     O1        0.584584090708410    0.209060437284793    0.125748346686083  0.0000
  O1     O1        0.913348951606529    0.748178221899733    0.134487800711590  0.0000
  O1     O1        0.364341323532865    0.091696939036519    0.862117665137178  0.0000
  O1     O1        0.126552706752415    0.878541596638748    0.867520105923351  0.0000
  O1     O1        0.417722600679953    0.750804771951759    0.873994175684854  0.0000
  O1     O1        0.073632274103032    0.218588766593145    0.882461299504774  0.0000
  O1     O1        0.616502872072781    0.857951500290655    0.125428732819175  0.0000
  O1     O1        0.876315945566054    0.099624243449615    0.128209994977629  0.0000
  O1     O1        0.516718293339390    0.017392163493723    0.939526231936989  0.0000
  O1     O1        0.975299601129497    0.952155441271625    0.946986213029785  0.0000
  O1     O1        0.162472670298714    0.511558486352525    0.351231628969154  0.0000
  O1     O1        0.346978434254284    0.436297296482138    0.347476337905471  0.0000
  O3     O3        0.851094593874155    0.483829243021459    0.656299450749754  0.0000
  O3     O3        0.645230248696612    0.550572982406657    0.654119376701012  0.0000
  O1     O1        0.235934987342379    0.201051903699146    0.288213941019124  0.0000
  O1     O1        0.269164757899682    0.749961602771689    0.284535620365559  0.0000
  O1     O1        0.735049246747785    0.250860096077733    0.696476356006793  0.0000
  O2     O2        0.760149110432993    0.735066275845333    0.730640785243057  0.0000
  O1     O1        0.113408434858889    0.333649377914672    0.134181551695422  0.0000
  O1     O1        0.385663720245837    0.617778803309232    0.124755739070592  0.0000
  O1     O1        0.862004233700378    0.237268132788749    0.867973566103114  0.0000
  O3     O3        0.636354082122871    0.740104433577131    0.867103261035386  0.0000
  O3     O3        0.877795597300029    0.637049741310990    0.875007602730270  0.0000
  O1     O1        0.612426855337827    0.332527718955861    0.865715092293854  0.0000
  O1     O1        0.138284016743473    0.737501618485358    0.128289712047917  0.0000
  O1     O1        0.359935236535263    0.228845255658473    0.120556926807450  0.0000
  O1     O1        0.659127154013723    0.517662890853922    0.086489122560286  0.0000
  O1     O1        0.837298488798402    0.441684543147178    0.093110096996647  0.0000
  O1     O1        0.338799299123256    0.443432260291077    0.900217968309264  0.0000
  O1     O1        0.152194720776311    0.525619219479521    0.909917274663413  0.0000
  O1     O1        0.731322066841794    0.204381315803436    0.020495733610839  0.0000
  O1     O1        0.764587193618286    0.765638985521276    0.042627402097617  0.0000
  O1     O1        0.226529451353889    0.210071996019624    0.967093226973176  0.0000
  O1     O1        0.267008357099796    0.754296637258809    0.967171685247713  0.0000
