data_c01382.vasp
_audit_creation_method             Generated by GULP
_audit_author_name                 Salvador R. G. Balestra
_symmetry_space_group_name_H-M     'P 1             '
_symmetry_Int_Tables_number        1

loop_
_symmetry_equiv_pos_site_id
_symmetry_equiv_pos_as_xyz
_cell_length_a                       17.6878
_cell_length_b                        7.8021
_cell_length_c                       10.3775
_cell_angle_alpha                   89.9486
_cell_angle_beta                    90.4861
_cell_angle_gamma                   89.7385

loop_
_atom_site_label
_atom_site_type_symbol
_atom_site_fract_x
_atom_site_fract_y
_atom_site_fract_z
_atom_site_charge
  Ge     Ge        0.052090000000021    0.000000000000000    0.372269999999958  0.0000
  Ge     Ge        0.555858650377929    0.972429878893057    0.575841183684678  0.0000
  Ge     Ge        0.545288412146339    0.972752872783635    0.074012627952081  0.0000
  Ge     Ge        0.943658032051838    0.991650544768381    0.117982306304748  0.0000
  Ge     Ge        0.441455443276305    0.966235820627629    0.818709135618899  0.0000
  Ge     Ge        0.046014670031999    0.992643171826230    0.864610499174693  0.0000
  Ge     Ge        0.152173568356853    0.308195310622742    0.262437477531931  0.0000
  Ge     Ge        0.354937816546783    0.655761597554550    0.251387491423041  0.0000
  Ge     Ge        0.845991507548257    0.304092166866716    0.683361019085297  0.0000
  Ge     Ge        0.830781027025465    0.707453188165613    0.687474513972620  0.0000
  Ge     Ge        0.174017028808455    0.719531129019022    0.255394409023521  0.0000
  Ge     Ge        0.333625884986175    0.245574743658631    0.253507611197724  0.0000
  Ge     Ge        0.668876537795118    0.243476830827811    0.993178688115217  0.0000
  Ge     Ge        0.823776380113352    0.715545054540029    0.999823658962681  0.0000
  Ge     Ge        0.323480923336983    0.240851183282832    0.940456603985290  0.0000
  Ge     Ge        0.169844478156489    0.718651157444610    0.942530611522530  0.0000
  Ge     Ge        0.350174041255320    0.650380730748142    0.938200819092186  0.0000
  Ge     Ge        0.143520269010928    0.309243183119123    0.949967850600013  0.0000
  Ge     Ge        0.644000595365594    0.658356293432810    0.989604511939058  0.0000
  Ge     Ge        0.848194472622622    0.306263936927184    0.999020260371560  0.0000
  Si     Si        0.450406989490542    0.966832391513525    0.330471474436561  0.0000
  Si     Si        0.944049607303423    0.991645977618852    0.613191044831243  0.0000
  Si     Si        0.651131389752377    0.662401735474878    0.687954252769612  0.0000
  Si     Si        0.667534365751908    0.259440852395777    0.688565411885090  0.0000
  O1     O1        0.088885698891415    0.201280466521438    0.356895541386468  0.0000
  O3     O3        0.416803291841459    0.776751296756345    0.344508377789468  0.0000
  O3     O3        0.905439778098295    0.176809183334619    0.592684247357695  0.0000
  O3     O3        0.598872437010597    0.773487552351328    0.592798403067053  0.0000
  O3     O3        0.879295811121768    0.849805359484969    0.591647919391138  0.0000
  O3     O3        0.619066886558582    0.139084870636800    0.595140270196508  0.0000
  O1     O1        0.124711177842606    0.857237915894421    0.351381121120347  0.0000
  O3     O3        0.384848275404096    0.107591309666751    0.352436034657120  0.0000
  O3     O3        0.017328317960295    0.970657388280203    0.526891858657591  0.0000
  O3     O3        0.524107552486103    0.989030774157237    0.417878140285691  0.0000
  O1     O1        0.976055546950842    0.968766168076668    0.272701727219857  0.0000
  O3     O3        0.474401265586990    0.998579116280575    0.182316441825308  0.0000
  O3     O3        0.970826617821678    0.968915716604546    0.761461040131714  0.0000
  O1     O1        0.476183963867449    0.988245166064078    0.665975758997029  0.0000
  O1     O1        0.620206332358070    0.111334757423105    0.092127229333886  0.0000
  O1     O1        0.867923915888901    0.857559528617030    0.098428146099560  0.0000
  O1     O1        0.364182926649079    0.097940996989718    0.838260128284342  0.0000
  O1     O1        0.120616045883880    0.853508604921910    0.842645044144029  0.0000
  O1     O1        0.414141516238646    0.758189086433170    0.846617430930384  0.0000
  O1     O1        0.078646481227005    0.199141817592263    0.859438521470713  0.0000
  O1     O1        0.578528328547170    0.765499854466715    0.078513661688145  0.0000
  O1     O1        0.915248959835480    0.199202989587893    0.086621706045979  0.0000
  O1     O1        0.510600325855482    0.026873049126839    0.924613825110182  0.0000
  O1     O1        0.015203981502784    0.938760877642511    0.016027197915040  0.0000
  O1     O1        0.163889500497750    0.513914973658394    0.313960956565616  0.0000
  O1     O1        0.347960001579138    0.451812162714963    0.309230163925323  0.0000
  O1     O1        0.847172478523184    0.507620256648308    0.623986176453699  0.0000
  O2     O2        0.657771172523537    0.461109373405361    0.649932330225644  0.0000
  O1     O1        0.238469285643062    0.204279105891815    0.262646236766999  0.0000
  O1     O1        0.269071826244788    0.760791278882529    0.254098082974368  0.0000
  O3     O3        0.755974633951549    0.216043756875527    0.679143133685077  0.0000
  O3     O3        0.734236000136395    0.744320612691558    0.687151331430563  0.0000
  O1     O1        0.115141796931854    0.309905913860240    0.108389373242571  0.0000
  O1     O1        0.384270539136597    0.645756491771483    0.094251452377068  0.0000
  O1     O1        0.876136021598996    0.311896031486707    0.840413960194491  0.0000
  O3     O3        0.614899040655221    0.675221778378347    0.828810036341807  0.0000
  O1     O1        0.859016000735800    0.720637391461707    0.845480206189391  0.0000
  O3     O3        0.639553995505715    0.227910035901349    0.832946610029431  0.0000
  O1     O1        0.140408887016321    0.732820440066321    0.100266106150592  0.0000
  O1     O1        0.359972186544874    0.232071041304045    0.094798462037708  0.0000
  O1     O1        0.652927417111893    0.452596713477599    0.040061221004977  0.0000
  O1     O1        0.836637428137703    0.509365241321726    0.056587109287211  0.0000
  O1     O1        0.336924381137442    0.446550271962602    0.883242711009877  0.0000
  O1     O1        0.154290953544702    0.511049960029099    0.891363305627471  0.0000
  O1     O1        0.763263010940761    0.199298848444242    0.003542902492682  0.0000
  O1     O1        0.729189191962939    0.761867409457690    0.998301247451893  0.0000
  O1     O1        0.228524700286922    0.200989662125319    0.948586581697348  0.0000
  O1     O1        0.264874701640565    0.758326618039621    0.938155695824985  0.0000
