data_c01337.vasp
_audit_creation_method             Generated by GULP
_audit_author_name                 Salvador R. G. Balestra
_symmetry_space_group_name_H-M     'P 1             '
_symmetry_Int_Tables_number        1

loop_
_symmetry_equiv_pos_site_id
_symmetry_equiv_pos_as_xyz
_cell_length_a                       17.5604
_cell_length_b                        7.8174
_cell_length_c                       10.1209
_cell_angle_alpha                   89.6037
_cell_angle_beta                    91.2289
_cell_angle_gamma                   88.6223

loop_
_atom_site_label
_atom_site_type_symbol
_atom_site_fract_x
_atom_site_fract_y
_atom_site_fract_z
_atom_site_charge
  Ge     Ge        0.052090000000021    0.000000000000000    0.372269999999958  0.0000
  Ge     Ge        0.938769970936768    0.959188495772979    0.614193099129204  0.0000
  Ge     Ge        0.547481391737035    0.014592126926180    0.118564327982061  0.0000
  Ge     Ge        0.953066699944676    0.947254957542576    0.105527128493010  0.0000
  Ge     Ge        0.443987443336521    0.956421671137717    0.853568180548255  0.0000
  Ge     Ge        0.148105008660411    0.313266679845173    0.294097958667028  0.0000
  Ge     Ge        0.354521945791052    0.638901263939969    0.289358371991877  0.0000
  Ge     Ge        0.822363710394678    0.256306305800555    0.717392032003338  0.0000
  Ge     Ge        0.665451755796750    0.727390510813052    0.722146143660142  0.0000
  Ge     Ge        0.638768754927681    0.325260903327123    0.720664178409988  0.0000
  Ge     Ge        0.173221009913799    0.716826885568819    0.291253504838701  0.0000
  Ge     Ge        0.329645661323967    0.234849726410944    0.285845508325449  0.0000
  Ge     Ge        0.646546562183913    0.321948539440742    0.042012913596340  0.0000
  Ge     Ge        0.848687182383689    0.639239182515889    0.043602069569037  0.0000
  Ge     Ge        0.323017607799089    0.239159536580084    0.965752688270343  0.0000
  Ge     Ge        0.167768506549741    0.721704955809167    0.970430275758746  0.0000
  Ge     Ge        0.350224490206649    0.642455709307745    0.968911616928991  0.0000
  Ge     Ge        0.140729459197319    0.316843337837554    0.974045399131122  0.0000
  Ge     Ge        0.670734494221237    0.727420827179771    0.043697963229729  0.0000
  Ge     Ge        0.826214134898338    0.234850079209642    0.035414124658691  0.0000
  Si     Si        0.446476698001556    0.950469507046799    0.366308614101115  0.0000
  Si     Si        0.549208760122338    0.013349191138156    0.608801633287157  0.0000
  Si     Si        0.050730789868142    0.008392442717411    0.853951375567076  0.0000
  Si     Si        0.843562290246914    0.650078081206106    0.726835074465400  0.0000
  O1     O1        0.087549127610254    0.201154077453195    0.391541268569569  0.0000
  O3     O3        0.417879151174599    0.758910579621090    0.383369328329132  0.0000
  O1     O1        0.869792617235073    0.115947279778165    0.617368082479057  0.0000
  O3     O3        0.623232536516535    0.892115759573087    0.631472996688046  0.0000
  O3     O3        0.905357684626590    0.759652652341239    0.651703050790141  0.0000
  O3     O3        0.571605864482772    0.207927920598478    0.634673137396588  0.0000
  O1     O1        0.125543012570776    0.852291880530238    0.393837274995693  0.0000
  O3     O3        0.378097033495344    0.087062310388214    0.386549159499986  0.0000
  O1     O1        0.971952359293709    0.954982017923420    0.454994234410934  0.0000
  O2     O2        0.520467323870208    0.991996618105287    0.456293639199357  0.0000
  O1     O1        0.028290629132020    0.987433170399299    0.204781812912616  0.0000
  O3     O3        0.471004112025451    0.973468319522519    0.214078517760387  0.0000
  O3     O3        0.021389562492850    0.004711290810014    0.702718362286381  0.0000
  O3     O3        0.478531797476234    0.957300584997722    0.694945375781538  0.0000
  O1     O1        0.585156867938857    0.213502447597071    0.139346035823061  0.0000
  O1     O1        0.918750741029079    0.743886900849970    0.126083114749848  0.0000
  O1     O1        0.366086255883308    0.091644459805549    0.866905289874004  0.0000
  O3     O3        0.122582500729352    0.879134470912718    0.875531363012453  0.0000
  O1     O1        0.416514441373314    0.750597232317139    0.883040816773647  0.0000
  O3     O3        0.073746060570338    0.201559249522070    0.887742817665663  0.0000
  O1     O1        0.619049441086402    0.862204039884921    0.140085946279737  0.0000
  O1     O1        0.878850076871543    0.091442820184194    0.128217997798505  0.0000
  O1     O1        0.516647351775402    0.015499412236580    0.955911898891041  0.0000
  O3     O3        0.980290259307142    0.952492984769075    0.941352527064579  0.0000
  O1     O1        0.162699337510812    0.512725635703324    0.353837014762904  0.0000
  O1     O1        0.345482911804504    0.436381617140150    0.349663824851772  0.0000
  O3     O3        0.834312273636699    0.464927392042215    0.661111311602923  0.0000
  O1     O1        0.643682978945199    0.530759497245126    0.659157567415386  0.0000
  O1     O1        0.233869183928660    0.200115113751065    0.286952302856367  0.0000
  O1     O1        0.269070529954235    0.751736310500602    0.287266652347579  0.0000
  O1     O1        0.726173979136337    0.223444992208353    0.712969410004367  0.0000
  O3     O3        0.763118473751819    0.754181597398757    0.721096400017279  0.0000
  O1     O1        0.112643282071845    0.334831405940869    0.134657345550310  0.0000
  O1     O1        0.383564380864026    0.620669786362568    0.129466287039090  0.0000
  O1     O1        0.856944276006564    0.222412546261996    0.874898828430699  0.0000
  O1     O1        0.636848344319932    0.742891750939682    0.882556720525378  0.0000
  O3     O3        0.869196859611534    0.614685091323472    0.877384371425264  0.0000
  O1     O1        0.612257521055469    0.344277719152589    0.881652663248796  0.0000
  O1     O1        0.137979020229357    0.731319183071031    0.130813894874446  0.0000
  O1     O1        0.359514990659346    0.224736658980744    0.125150130282997  0.0000
  O1     O1        0.661864979838759    0.520737933541008    0.102237895189428  0.0000
  O1     O1        0.838629975100813    0.436551438586292    0.101308851162087  0.0000
  O1     O1        0.337520320820599    0.442414324476113    0.905755965939116  0.0000
  O1     O1        0.149037024290860    0.520029208836337    0.910966588184313  0.0000
  O1     O1        0.730163776670627    0.201104637945442    0.034633397820517  0.0000
  O1     O1        0.766504471411121    0.763966385979816    0.050457626783130  0.0000
  O1     O1        0.226856910307412    0.208590186978931    0.970433851863251  0.0000
  O1     O1        0.264043992031775    0.752698547224051    0.967491995177418  0.0000
