data_c01326.vasp
_audit_creation_method             Generated by GULP
_audit_author_name                 Salvador R. G. Balestra
_symmetry_space_group_name_H-M     'P 1             '
_symmetry_Int_Tables_number        1

loop_
_symmetry_equiv_pos_site_id
_symmetry_equiv_pos_as_xyz
_cell_length_a                       17.7323
_cell_length_b                        7.7938
_cell_length_c                       10.3973
_cell_angle_alpha                   90.1089
_cell_angle_beta                    91.2352
_cell_angle_gamma                   90.3605

loop_
_atom_site_label
_atom_site_type_symbol
_atom_site_fract_x
_atom_site_fract_y
_atom_site_fract_z
_atom_site_charge
  Ge     Ge        0.052090000000021    0.000000000000000    0.372269999999958  0.0000
  Ge     Ge        0.938982182447398    0.006708418572568    0.612731507910396  0.0000
  Ge     Ge        0.546125076911247    0.028063209136786    0.089055017469305  0.0000
  Ge     Ge        0.943249768314851    0.009183127707369    0.118426055575592  0.0000
  Ge     Ge        0.441481603104193    0.037251548742971    0.830374604646911  0.0000
  Ge     Ge        0.045146283052951    0.010767032293919    0.870239858108311  0.0000
  Ge     Ge        0.174260896837658    0.282426245324420    0.256478282399514  0.0000
  Ge     Ge        0.333003743059047    0.758308725359239    0.259659022988814  0.0000
  Ge     Ge        0.820274635247489    0.289868502692800    0.689111167706431  0.0000
  Ge     Ge        0.834994618365809    0.692950107201034    0.679549850019157  0.0000
  Ge     Ge        0.152137960653317    0.692356998677851    0.264641794322896  0.0000
  Ge     Ge        0.354705193558955    0.346296358232022    0.256204685765378  0.0000
  Ge     Ge        0.642531578773681    0.344304437338124    0.003202179334284  0.0000
  Ge     Ge        0.846079780157270    0.696121915023632    0.995883597917132  0.0000
  Ge     Ge        0.350176587196683    0.353136418340726    0.943267166368875  0.0000
  Ge     Ge        0.143648514128838    0.693837286653548    0.952399160022627  0.0000
  Ge     Ge        0.323222336776300    0.764484646919638    0.947524999074099  0.0000
  Ge     Ge        0.170248515012528    0.285941047121548    0.943234922961648  0.0000
  Ge     Ge        0.667927489848630    0.756274211107537    0.002813445252718  0.0000
  Ge     Ge        0.821549577172286    0.284427769725321    0.000230374381602  0.0000
  Si     Si        0.449514245642560    0.035648385868189    0.343836567297096  0.0000
  Si     Si        0.548612301113634    0.025580636056064    0.591608313287353  0.0000
  Si     Si        0.656876051364814    0.735940970260955    0.696416977605327  0.0000
  Si     Si        0.640625905273671    0.337243981446549    0.701961311082742  0.0000
  O1     O1        0.123998834932655    0.143090222888628    0.348376435875678  0.0000
  O3     O3        0.382606026841452    0.897928810940809    0.360778176518208  0.0000
  O1     O1        0.866618008902915    0.151773622905542    0.592181655440702  0.0000
  O2     O2        0.606358929934241    0.867794106781309    0.612050413279792  0.0000
  O1     O1        0.895061668721675    0.811841873073587    0.589088586923152  0.0000
  O2     O2        0.588228404826824    0.211593683084156    0.613452828885600  0.0000
  O1     O1        0.088691246914189    0.798290012520866    0.357503178290311  0.0000
  O3     O3        0.417494440600116    0.226996169921616    0.349306249037870  0.0000
  O1     O1        0.017953606396277    0.030189044218228    0.524787731854841  0.0000
  O2     O2        0.519262149097994    0.015478876255114    0.444082501937500  0.0000
  O1     O1        0.973533850457432    0.025871087638549    0.275414635284872  0.0000
  O3     O3        0.480153333601733    0.993498638583947    0.202722345110546  0.0000
  O1     O1        0.969136497401356    0.033404768972834    0.770475680011225  0.0000
  O3     O3        0.476076124082061    0.008001902505893    0.678222098974913  0.0000
  O1     O1        0.578524295918907    0.236015017197239    0.093148103817565  0.0000
  O1     O1        0.915298942503425    0.802595229309216    0.080035678358101  0.0000
  O1     O1        0.414192907860876    0.245980253864815    0.853066282165786  0.0000
  O1     O1        0.078706857557276    0.804598545504687    0.862034841895897  0.0000
  O1     O1        0.363259389820784    0.907996327779756    0.846405603562054  0.0000
  O1     O1        0.119177593290277    0.150654725260569    0.845542641697458  0.0000
  O1     O1        0.621990530578742    0.891761081125001    0.101235591668000  0.0000
  O1     O1        0.868551897245376    0.145530762538246    0.098526883501720  0.0000
  O1     O1        0.507595718118742    0.974731962774974    0.941549225766099  0.0000
  O1     O1        0.017244503300395    0.061337471851510    0.023633864285612  0.0000
  O1     O1        0.163923837592039    0.486881458637717    0.317348805939863  0.0000
  O1     O1        0.347453702778048    0.550789203597381    0.312795934473879  0.0000
  O1     O1        0.834433087762226    0.488519990327477    0.623222947108042  0.0000
  O2     O2        0.641705133302178    0.536190212742215    0.652562397635614  0.0000
  O1     O1        0.269102814315175    0.240689196753301    0.258363183809940  0.0000
  O1     O1        0.237963964453737    0.797695606091775    0.266785357704389  0.0000
  O3     O3        0.723857569656349    0.260239177609469    0.700734082819542  0.0000
  O3     O3        0.744377079419669    0.778429900070372    0.677617811870728  0.0000
  O1     O1        0.141617693938572    0.274166144554173    0.100490367771925  0.0000
  O1     O1        0.359792233046313    0.775408280878723    0.102364733896548  0.0000
  O1     O1        0.853445906963681    0.272974691756275    0.845158965035412  0.0000
  O3     O3        0.635453546287603    0.758843391846431    0.843653341443762  0.0000
  O1     O1        0.868372949545066    0.691362642409958    0.835810539945188  0.0000
  O3     O3        0.608393338668035    0.334256537935352    0.844170741924217  0.0000
  O1     O1        0.115493650961588    0.689080199682491    0.109949365453618  0.0000
  O1     O1        0.384117611497903    0.352398831805116    0.100033182118088  0.0000
  O1     O1        0.653859986137295    0.548816439521884    0.055834654932503  0.0000
  O1     O1        0.835732242872745    0.492369347172381    0.053078643450110  0.0000
  O1     O1        0.337009473874720    0.558226263307114    0.891361232810685  0.0000
  O1     O1        0.154761235524765    0.493325307630490    0.891153799086845  0.0000
  O1     O1        0.727098731416213    0.238708519132245    0.005388048795886  0.0000
  O1     O1        0.761927088444489    0.803970972822036    0.007162813360707  0.0000
  O1     O1        0.264873693549507    0.245340532003877    0.939501795262410  0.0000
  O1     O1        0.228425429103462    0.802867756139380    0.954228484032193  0.0000
