data_c01363.vasp
_audit_creation_method             Generated by GULP
_audit_author_name                 Salvador R. G. Balestra
_symmetry_space_group_name_H-M     'P 1             '
_symmetry_Int_Tables_number        1

loop_
_symmetry_equiv_pos_site_id
_symmetry_equiv_pos_as_xyz
_cell_length_a                       17.5820
_cell_length_b                        7.8236
_cell_length_c                       10.1324
_cell_angle_alpha                   89.2325
_cell_angle_beta                    90.4554
_cell_angle_gamma                   88.2865

loop_
_atom_site_label
_atom_site_type_symbol
_atom_site_fract_x
_atom_site_fract_y
_atom_site_fract_z
_atom_site_charge
  Ge     Ge        0.052090000000021    0.000000000000000    0.372269999999958  0.0000
  Ge     Ge        0.545039414135079    0.009889647407985    0.596380543626629  0.0000
  Ge     Ge        0.549239915728326    0.011724821262673    0.114158572058892  0.0000
  Ge     Ge        0.941814317007554    0.949625144652551    0.121047008611544  0.0000
  Ge     Ge        0.442617883339741    0.958685780738058    0.858329269030228  0.0000
  Ge     Ge        0.043068860945693    0.024429333374732    0.863512653093262  0.0000
  Ge     Ge        0.149555029247328    0.312013035138480    0.250279772730556  0.0000
  Ge     Ge        0.353799757997981    0.643364605053169    0.239834415585348  0.0000
  Ge     Ge        0.826164997530868    0.241221422151305    0.682952869325458  0.0000
  Ge     Ge        0.669202729443530    0.724827778378637    0.674492470018188  0.0000
  Ge     Ge        0.850541969877428    0.643487944032549    0.678320275744204  0.0000
  Ge     Ge        0.644140403994135    0.320603993172199    0.673958293094247  0.0000
  Ge     Ge        0.171324506917149    0.713873223817342    0.258991740422514  0.0000
  Ge     Ge        0.639889645049046    0.325330904162285    0.994071269916521  0.0000
  Ge     Ge        0.851375851637344    0.637701752316667    0.998662591185201  0.0000
  Ge     Ge        0.323256353702779    0.259163628923585    0.924469896863901  0.0000
  Ge     Ge        0.166467584404985    0.733687891740243    0.940470494039810  0.0000
  Ge     Ge        0.143269187820680    0.332195411830279    0.924980901480075  0.0000
  Ge     Ge        0.670681718750239    0.728752141820939    0.995229207740786  0.0000
  Ge     Ge        0.820918963723602    0.236894339495855    0.003266953588948  0.0000
  Si     Si        0.442281034369562    0.956461662601384    0.352372908684484  0.0000
  Si     Si        0.944189014315904    0.956261838576869    0.613616125608236  0.0000
  Si     Si        0.329047170708319    0.246469367323718    0.238933941417616  0.0000
  Si     Si        0.344115506346771    0.654956786665455    0.930388937695335  0.0000
  O1     O1        0.084904738890834    0.199395421132346    0.337603343162096  0.0000
  O3     O3        0.418657081403677    0.763266489352592    0.324769383935636  0.0000
  O3     O3        0.876439686290151    0.095933343667364    0.587122670798320  0.0000
  O1     O1        0.618643210272352    0.863982023471109    0.573646627192158  0.0000
  O3     O3        0.914190909649436    0.767034177010229    0.590632052449941  0.0000
  O1     O1        0.580543318482092    0.210410331210550    0.580471747340195  0.0000
  O1     O1        0.127148425682296    0.858112069431035    0.359825482515899  0.0000
  O2     O2        0.374837378985950    0.093689698732706    0.316092058922025  0.0000
  O3     O3        0.019584767697544    0.996077352412138    0.534189104464832  0.0000
  O3     O3        0.463743161546382    0.974495478679812    0.505775029991693  0.0000
  O1     O1        0.974012067446529    0.949226387287471    0.281182631406372  0.0000
  O3     O3        0.519850626440526    0.998376591005905    0.276928333397571  0.0000
  O3     O3        0.966500825954206    0.971560038388415    0.769067191058174  0.0000
  O1     O1        0.518394488587554    0.980122152217569    0.758996811464120  0.0000
  O1     O1        0.573369856517171    0.219196811315211    0.082675236287665  0.0000
  O1     O1        0.919013158149604    0.743299133196762    0.084238523016531  0.0000
  O1     O1        0.377980785028481    0.126410628831314    0.831527124948302  0.0000
  O1     O1        0.120039524386289    0.884800905259785    0.846543444308634  0.0000
  O3     O3        0.397397969492261    0.765483627850664    0.837629827266264  0.0000
  O1     O1        0.076000258972174    0.226519232158253    0.837380491550149  0.0000
  O1     O1        0.627376171300699    0.878974854543919    0.091678962019561  0.0000
  O1     O1        0.863266636112556    0.083794238291034    0.102656336641139  0.0000
  O1     O1        0.474054090169540    0.954449345857527    0.019099013842688  0.0000
  O1     O1        0.014908883923661    0.018036790628291    0.025640421500159  0.0000
  O1     O1        0.155738751609100    0.510777526097494    0.316474186779286  0.0000
  O3     O3        0.348220398240627    0.432397332251508    0.296171303055131  0.0000
  O1     O1        0.841071082239458    0.442906742506940    0.616906610111329  0.0000
  O1     O1        0.657351935140729    0.521744177801158    0.614223803912671  0.0000
  O3     O3        0.239794910175704    0.213471690153129    0.251333353397355  0.0000
  O1     O1        0.267343394202113    0.743723652781320    0.257927701067148  0.0000
  O1     O1        0.730272708240012    0.207416476403915    0.678186405547115  0.0000
  O1     O1        0.765239365973998    0.757519482809280    0.675712061004932  0.0000
  O1     O1        0.120090422249614    0.335487652601663    0.089979672941887  0.0000
  O3     O3        0.380568420567170    0.632222960328884    0.076749536995301  0.0000
  O1     O1        0.856043153600561    0.227064801277208    0.844947920946688  0.0000
  O1     O1        0.637979292029910    0.741394498685768    0.834837223147430  0.0000
  O1     O1        0.880575464551019    0.613900555212876    0.838394788017061  0.0000
  O1     O1        0.610335476099859    0.338436288286102    0.832060448250808  0.0000
  O1     O1        0.135159118682793    0.742247923589909    0.101266596029473  0.0000
  O3     O3        0.353876065151935    0.240010459786033    0.087144974998030  0.0000
  O1     O1        0.652878615451518    0.525510853418206    0.054118621977924  0.0000
  O1     O1        0.837961675554519    0.437781774807690    0.063727114487597  0.0000
  O3     O3        0.331867498447943    0.470093785625464    0.870227454208443  0.0000
  O1     O1        0.148963576912534    0.538193730198792    0.871803259016043  0.0000
  O1     O1        0.724824770383281    0.209481534390246    0.997645796640193  0.0000
  O1     O1        0.767068147651905    0.755714231316898    0.997602700180189  0.0000
  O1     O1        0.228802793394665    0.219015391139763    0.912742735468500  0.0000
  O3     O3        0.263807023125795    0.758127840812875    0.947248031762146  0.0000
