data_c01395.vasp
_audit_creation_method             Generated by GULP
_audit_author_name                 Salvador R. G. Balestra
_symmetry_space_group_name_H-M     'P 1             '
_symmetry_Int_Tables_number        1

loop_
_symmetry_equiv_pos_site_id
_symmetry_equiv_pos_as_xyz
_cell_length_a                       17.5244
_cell_length_b                        7.8470
_cell_length_c                       10.1738
_cell_angle_alpha                   90.0949
_cell_angle_beta                    89.4202
_cell_angle_gamma                   88.1518

loop_
_atom_site_label
_atom_site_type_symbol
_atom_site_fract_x
_atom_site_fract_y
_atom_site_fract_z
_atom_site_charge
  Ge     Ge        0.052090000000021    0.000000000000000    0.372269999999958  0.0000
  Ge     Ge        0.550010356653816    0.999699589698490    0.643513201922532  0.0000
  Ge     Ge        0.551166051747439    0.995156672927002    0.147097222611879  0.0000
  Ge     Ge        0.947663916989420    0.939792379260879    0.116869711800420  0.0000
  Ge     Ge        0.052768488819303    0.995127333793701    0.858393769205969  0.0000
  Ge     Ge        0.149378403367734    0.311625661372603    0.296231958056968  0.0000
  Ge     Ge        0.357670931740515    0.632806544815923    0.285482539552740  0.0000
  Ge     Ge        0.830413952726894    0.236293806287351    0.726950490279096  0.0000
  Ge     Ge        0.674077305138672    0.713880805315302    0.722380205575198  0.0000
  Ge     Ge        0.856203636780837    0.637803084321479    0.730291875322826  0.0000
  Ge     Ge        0.646696120125236    0.312688568634673    0.718101606268417  0.0000
  Ge     Ge        0.174798667007542    0.713383037716043    0.290353220412182  0.0000
  Ge     Ge        0.331588387128833    0.232486480358014    0.288899797330145  0.0000
  Ge     Ge        0.642499917553697    0.312431594404708    0.034590896875817  0.0000
  Ge     Ge        0.847394077418198    0.630425172181075    0.050462375083569  0.0000
  Ge     Ge        0.331942064828451    0.228093391059686    0.969183689456898  0.0000
  Ge     Ge        0.174170876359516    0.708303189034780    0.972486678776712  0.0000
  Ge     Ge        0.356947971675767    0.627815319573062    0.968148900445764  0.0000
  Ge     Ge        0.148824612837653    0.304431152327572    0.975587321601168  0.0000
  Ge     Ge        0.825075743272534    0.232292411516541    0.044969743694665  0.0000
  Si     Si        0.447607347884629    0.941335561260155    0.397386526916190  0.0000
  Si     Si        0.946999324695588    0.945985636912496    0.616049203601513  0.0000
  Si     Si        0.449774420105615    0.937486072719012    0.897857786907912  0.0000
  Si     Si        0.669427800182717    0.708147814723246    0.034973899726998  0.0000
  O1     O1        0.085443543798696    0.201300637098910    0.389752806135327  0.0000
  O3     O3        0.422891601215429    0.749600176887049    0.370752189073479  0.0000
  O3     O3        0.875930084542404    0.076343584910532    0.636985466992336  0.0000
  O1     O1        0.625724963583053    0.856979867958808    0.626382666750424  0.0000
  O3     O3        0.924645307675963    0.754183041486476    0.650050968013332  0.0000
  O1     O1        0.584290445714075    0.199676472429525    0.624920889568505  0.0000
  O1     O1        0.126971703602845    0.855890906079842    0.390779862864422  0.0000
  O3     O3        0.377397198283008    0.073626561254116    0.376824952909218  0.0000
  O3     O3        0.972474945752943    0.955724590202218    0.463841216432677  0.0000
  O3     O3        0.473428938881220    0.956794344531015    0.547878323449026  0.0000
  O1     O1        0.024136964326262    0.979556835954807    0.210257951343069  0.0000
  O3     O3        0.520795475992597    0.986167797134250    0.308870206251131  0.0000
  O3     O3        0.021078617665969    0.998614493274285    0.697324430210166  0.0000
  O3     O3        0.520998842887755    0.975328953063008    0.806645759384355  0.0000
  O1     O1        0.579031737570192    0.200991028709386    0.126459401794670  0.0000
  O1     O1        0.908307733789705    0.744025492239328    0.143087213579749  0.0000
  O3     O3        0.381358059608889    0.077238898853339    0.875893887880811  0.0000
  O1     O1        0.129504266656852    0.855515395758108    0.874069469169005  0.0000
  O3     O3        0.418692915632741    0.748909910534177    0.875526208429847  0.0000
  O1     O1        0.081337203476030    0.198049880936423    0.891611480837422  0.0000
  O3     O3        0.626137884610777    0.850190747445382    0.123090643143163  0.0000
  O1     O1        0.874244610720574    0.088673517079044    0.138931406188351  0.0000
  O3     O3        0.474690502911195    0.949188169675417    0.050297086780888  0.0000
  O1     O1        0.977677177392750    0.938476066658400    0.954611279164378  0.0000
  O1     O1        0.160642323850864    0.512498551152160    0.353842642094470  0.0000
  O1     O1        0.347776799034816    0.432971492900089    0.351227688815865  0.0000
  O1     O1        0.848818487148007    0.436022807544673    0.665822019777002  0.0000
  O1     O1        0.658573440593710    0.513211245554432    0.660221049474654  0.0000
  O1     O1        0.235650529727553    0.199064581332263    0.294420177083191  0.0000
  O1     O1        0.271171749632938    0.742923803073641    0.286368956760650  0.0000
  O1     O1        0.734174796285982    0.205728766924817    0.722573188715754  0.0000
  O1     O1        0.769908652510331    0.747101366720660    0.718269933025410  0.0000
  O1     O1        0.119023553079039    0.323961047927035    0.136330139767537  0.0000
  O1     O1        0.388862308009134    0.605323692723768    0.126605477012729  0.0000
  O1     O1        0.860878278129029    0.223093815986127    0.886341441495482  0.0000
  O3     O3        0.641882468523411    0.719793999439828    0.884691080414303  0.0000
  O1     O1        0.881034190351206    0.612209777973225    0.891065077163100  0.0000
  O1     O1        0.611017459575566    0.320453647097557    0.876236635041057  0.0000
  O1     O1        0.140648330802983    0.726582195124395    0.131993705020359  0.0000
  O1     O1        0.362982237576445    0.225339635164761    0.128919607412995  0.0000
  O3     O3        0.653323704552012    0.519274673590425    0.090185860411326  0.0000
  O1     O1        0.838322186132396    0.431352085201062    0.112211729446473  0.0000
  O1     O1        0.347637068867195    0.428104826778111    0.904314007528676  0.0000
  O1     O1        0.159351636151276    0.505680246734437    0.914400097036826  0.0000
  O1     O1        0.728948248524516    0.202694121345582    0.039713372708030  0.0000
  O3     O3        0.759440725461937    0.738572728268842    0.039442998189003  0.0000
  O1     O1        0.235770856090743    0.194528090193594    0.968436716356627  0.0000
  O1     O1        0.270545896456364    0.737530708941021    0.974599834589612  0.0000
