data_c01392.vasp
_audit_creation_method             Generated by GULP
_audit_author_name                 Salvador R. G. Balestra
_symmetry_space_group_name_H-M     'P 1             '
_symmetry_Int_Tables_number        1

loop_
_symmetry_equiv_pos_site_id
_symmetry_equiv_pos_as_xyz
_cell_length_a                       17.4847
_cell_length_b                        7.8358
_cell_length_c                       10.1323
_cell_angle_alpha                   90.1990
_cell_angle_beta                    91.2562
_cell_angle_gamma                   91.9917

loop_
_atom_site_label
_atom_site_type_symbol
_atom_site_fract_x
_atom_site_fract_y
_atom_site_fract_z
_atom_site_charge
  Ge     Ge        0.052090000000021    0.000000000000000    0.372269999999958  0.0000
  Ge     Ge        0.549429572004307    0.000446358684399    0.592848115756812  0.0000
  Ge     Ge        0.542016985409708    0.992639434973051    0.093019489295959  0.0000
  Ge     Ge        0.948279661949177    0.058979355117989    0.109845711891133  0.0000
  Ge     Ge        0.435634451746490    0.056660143267590    0.832707435624441  0.0000
  Ge     Ge        0.170393020125497    0.287656081803047    0.281973760149772  0.0000
  Ge     Ge        0.328977922435379    0.771740412507597    0.271635025335800  0.0000
  Ge     Ge        0.848693338751403    0.360017093838901    0.716435116826143  0.0000
  Ge     Ge        0.639653410944782    0.680809547827505    0.708231409893613  0.0000
  Ge     Ge        0.824665636001880    0.758343913995646    0.710649123540272  0.0000
  Ge     Ge        0.146720679710725    0.690704156374129    0.286997642952636  0.0000
  Ge     Ge        0.352538201991822    0.368767172004269    0.271984272709738  0.0000
  Ge     Ge        0.668726832220343    0.281386255477151    0.025019393609289  0.0000
  Ge     Ge        0.822818303609694    0.769316082333548    0.030511111970249  0.0000
  Ge     Ge        0.344284193878854    0.369096850222451    0.952405863157004  0.0000
  Ge     Ge        0.133228818055767    0.689827655606110    0.967960363024346  0.0000
  Ge     Ge        0.316663154731767    0.770057705935587    0.952096806446489  0.0000
  Ge     Ge        0.160523357922535    0.286283977366834    0.962173597380935  0.0000
  Ge     Ge        0.641174103548031    0.684109508565246    0.027366316222102  0.0000
  Ge     Ge        0.849133624344165    0.367592189506589    0.037186220994026  0.0000
  Si     Si        0.446915495791303    0.060311823377749    0.344284607371706  0.0000
  Si     Si        0.938836398186362    0.049113888712888    0.605659982650820  0.0000
  Si     Si        0.042560080893405    0.998688989867275    0.853114695777914  0.0000
  Si     Si        0.667333972240808    0.287355266124518    0.712451360010137  0.0000
  O1     O1        0.124861140041639    0.151647435177902    0.388790628906613  0.0000
  O3     O3        0.379963824597821    0.918185766647534    0.370151438835304  0.0000
  O3     O3        0.911324736947375    0.238918651380355    0.630074021868066  0.0000
  O1     O1        0.576493298389888    0.794197507812680    0.614100945826535  0.0000
  O3     O3        0.868363617814157    0.915892272101533    0.617152245549701  0.0000
  O3     O3        0.626417731084414    0.138386987908362    0.626124747187016  0.0000
  O1     O1        0.088287279510894    0.801331177031069    0.388998826731123  0.0000
  O3     O3        0.416450663605741    0.249352348484373    0.363827503316363  0.0000
  O3     O3        0.971524099414044    0.039015059607694    0.459207193567670  0.0000
  O3     O3        0.523160782597586    0.026874819554251    0.427507616828566  0.0000
  O1     O1        0.023882524578167    0.015040639230596    0.207614168936179  0.0000
  O3     O3        0.466317891458699    0.039074967628702    0.189205426235412  0.0000
  O2     O2        0.010456104822663    0.001493228563595    0.701796760785659  0.0000
  O1     O1        0.468258824966907    0.046440706183650    0.674636425451553  0.0000
  O1     O1        0.616788860460464    0.139646686058995    0.115162078646858  0.0000
  O1     O1        0.873472945539688    0.912794414259740    0.127067917419248  0.0000
  O1     O1        0.408621374545563    0.261786014296897    0.862453860447590  0.0000
  O3     O3        0.065340303427378    0.805622419213170    0.884315269525723  0.0000
  O1     O1        0.357303054210863    0.921283337285246    0.853009011879685  0.0000
  O3     O3        0.115962912550097    0.126998763555488    0.867500541406731  0.0000
  O1     O1        0.577210684669291    0.793046935412957    0.118478817093769  0.0000
  O1     O1        0.914008429870686    0.260305743922006    0.131162131365696  0.0000
  O1     O1        0.510983278920236    0.998930926217776    0.931154854086728  0.0000
  O3     O3        0.975765202508448    0.057518452270656    0.945615520511024  0.0000
  O1     O1        0.161136661812276    0.490950467835320    0.344868363165879  0.0000
  O1     O1        0.344641787077540    0.569970938653672    0.334019813647158  0.0000
  O1     O1        0.844280676161984    0.559715783655806    0.649068590553647  0.0000
  O3     O3        0.649071746360488    0.472493778462924    0.652598676745531  0.0000
  O1     O1        0.266376481865684    0.254971493201192    0.272339284573656  0.0000
  O1     O1        0.232718454589181    0.804926872824971    0.276726739249487  0.0000
  O3     O3        0.758119629738540    0.262438517903375    0.715881971305373  0.0000
  O1     O1        0.727884594786547    0.783198049556430    0.703835486680724  0.0000
  O1     O1        0.132144805972580    0.272573230666062    0.123529524346635  0.0000
  O1     O1        0.356091718060387    0.782103128906614    0.109465963322039  0.0000
  O1     O1        0.879175894224324    0.384483552621047    0.876502300409926  0.0000
  O1     O1        0.607655554954439    0.673629622074318    0.866100754653490  0.0000
  O1     O1        0.855914230850878    0.776679089491966    0.871500107455593  0.0000
  O3     O3        0.636628991797360    0.276405996658214    0.861054771396939  0.0000
  O1     O1        0.107501234018892    0.671950786959815    0.129929995432616  0.0000
  O1     O1        0.380046548245353    0.389917017653691    0.111405461485100  0.0000
  O1     O1        0.654892369899253    0.484440947700641    0.085835815796641  0.0000
  O1     O1        0.835610459996067    0.567718220659393    0.095313882132736  0.0000
  O1     O1        0.331076213695809    0.568912838220227    0.889803290850433  0.0000
  O1     O1        0.139550590931308    0.487161838704530    0.904797934950360  0.0000
  O1     O1        0.764368918545335    0.246605107386895    0.033815609403284  0.0000
  O1     O1        0.726591726010049    0.802063295933633    0.026217163028073  0.0000
  O1     O1        0.257120949716604    0.259739641410640    0.955956620866605  0.0000
  O1     O1        0.220119933025505    0.797288479112270    0.961584241412808  0.0000
