data_c01318.vasp
_audit_creation_method             Generated by GULP
_audit_author_name                 Salvador R. G. Balestra
_symmetry_space_group_name_H-M     'P 1             '
_symmetry_Int_Tables_number        1

loop_
_symmetry_equiv_pos_site_id
_symmetry_equiv_pos_as_xyz
_cell_length_a                       17.5137
_cell_length_b                        7.8243
_cell_length_c                       10.1952
_cell_angle_alpha                   91.1260
_cell_angle_beta                    90.3733
_cell_angle_gamma                   88.2784

loop_
_atom_site_label
_atom_site_type_symbol
_atom_site_fract_x
_atom_site_fract_y
_atom_site_fract_z
_atom_site_charge
  Ge     Ge        0.052090000000021    0.000000000000000    0.372269999999958  0.0000
  Ge     Ge        0.944528531165960    0.941720396914476    0.619192640603437  0.0000
  Ge     Ge        0.547054489886050    0.025426980738185    0.096713209960859  0.0000
  Ge     Ge        0.938630993408260    0.957661590706928    0.128352809884189  0.0000
  Ge     Ge        0.445627728375601    0.948842293210120    0.835178013330320  0.0000
  Ge     Ge        0.045162143347306    0.009795609285508    0.878273179560652  0.0000
  Ge     Ge        0.142953672265436    0.318399665967596    0.258525451422411  0.0000
  Ge     Ge        0.350368204753637    0.641191237879540    0.268856051812628  0.0000
  Ge     Ge        0.820962433623377    0.229319348695856    0.697402458450129  0.0000
  Ge     Ge        0.663687268560673    0.715302357910223    0.692565029381456  0.0000
  Ge     Ge        0.845265977181008    0.633172879292543    0.689698367935506  0.0000
  Ge     Ge        0.637840468208353    0.310810646478204    0.703816707456274  0.0000
  Ge     Ge        0.327270250385585    0.241441512305523    0.263720962104637  0.0000
  Ge     Ge        0.640812165584813    0.336509881386508    0.021884670773073  0.0000
  Ge     Ge        0.323982978487256    0.235690280660984    0.946150083248334  0.0000
  Ge     Ge        0.172603863901079    0.724124608188073    0.949098282288806  0.0000
  Ge     Ge        0.353263225994052    0.638513467605368    0.950526211575789  0.0000
  Ge     Ge        0.142432836476341    0.323473247025279    0.942815922743580  0.0000
  Ge     Ge        0.668542058414345    0.735743612335639    0.010386770697699  0.0000
  Ge     Ge        0.822570498157307    0.252918053783905    0.013247281745119  0.0000
  Si     Si        0.443379539819036    0.955744234080985    0.342896420370655  0.0000
  Si     Si        0.547208707434464    0.998652065068226    0.585903892205518  0.0000
  Si     Si        0.170527586334112    0.712889270562140    0.260200565838551  0.0000
  Si     Si        0.846300911892193    0.650500522754592    0.001350814237854  0.0000
  O1     O1        0.079837511393353    0.205361849690607    0.348235452605240  0.0000
  O3     O3        0.411061001950496    0.768279347853348    0.360495802340526  0.0000
  O1     O1        0.869624072503318    0.086540963693885    0.597861409350582  0.0000
  O3     O3        0.618477526421137    0.866850722307158    0.596090014969953  0.0000
  O1     O1        0.910503574379188    0.739018720450965    0.599837223909433  0.0000
  O3     O3        0.571700465647171    0.190418168915161    0.619273325555462  0.0000
  O3     O3        0.128168335021748    0.858785535987252    0.346433476756960  0.0000
  O3     O3        0.374799129356319    0.094178858377346    0.361633169658964  0.0000
  O1     O1        0.024538478475248    0.982227030403814    0.533644151532872  0.0000
  O2     O2        0.515753715047794    0.992962974338774    0.435817542502257  0.0000
  O1     O1        0.970402075978612    0.949265851006665    0.288123584394965  0.0000
  O3     O3        0.472625711839588    0.971872369408332    0.193548243021407  0.0000
  O1     O1        0.969445048580232    0.960724198284112    0.783629385983595  0.0000
  O3     O3        0.478173362766641    0.942515529699764    0.675763802669518  0.0000
  O1     O1        0.579274561967428    0.229078688653703    0.118861555525176  0.0000
  O3     O3        0.907175933503039    0.756604774204059    0.083824893548496  0.0000
  O1     O1        0.366651350528816    0.083054241611724    0.847687226886929  0.0000
  O1     O1        0.121724675326326    0.867075209856724    0.859029183831750  0.0000
  O1     O1        0.421954806058920    0.742796840463417    0.869048710791857  0.0000
  O1     O1        0.078774716995119    0.210581296770819    0.850254385569118  0.0000
  O1     O1        0.624796290358054    0.886054001570490    0.108511946051016  0.0000
  O1     O1        0.868999688705781    0.115954250999174    0.117008818609035  0.0000
  O1     O1        0.516597172673602    0.018171686838008    0.935794587099730  0.0000
  O1     O1        0.017419997954908    0.004904718431645    0.040122450803933  0.0000
  O3     O3        0.154364287986674    0.526573790131223    0.317297105436495  0.0000
  O1     O1        0.345140433505967    0.441441890064832    0.330294667523021  0.0000
  O1     O1        0.834746421509434    0.429373739032847    0.634077259885374  0.0000
  O1     O1        0.647165571675541    0.509727122091368    0.637771371582216  0.0000
  O1     O1        0.230824861303052    0.213758181359274    0.264217196764405  0.0000
  O3     O3        0.260915203840016    0.742017443464207    0.262236003124147  0.0000
  O1     O1        0.724348989951055    0.200231854871599    0.701377706055454  0.0000
  O1     O1        0.759824020650931    0.747137480311035    0.684892439160128  0.0000
  O1     O1        0.109352841371388    0.332413070791878    0.101956891159479  0.0000
  O1     O1        0.382220318100080    0.619384378156483    0.111108604784551  0.0000
  O1     O1        0.855468938648599    0.218042874481214    0.856380820127844  0.0000
  O1     O1        0.633357022058255    0.742940020364685    0.852002818650356  0.0000
  O3     O3        0.874461343659573    0.621312893608765    0.852850200364973  0.0000
  O1     O1        0.608339329952737    0.345350537786100    0.861773208185931  0.0000
  O3     O3        0.140978098989373    0.724224135347174    0.110657724671439  0.0000
  O1     O1        0.359242422384773    0.224376290700252    0.104578111025880  0.0000
  O1     O1        0.651218847286696    0.540450819559488    0.077914839933612  0.0000
  O3     O3        0.835069445429462    0.465434668878455    0.062481832980487  0.0000
  O1     O1        0.340040380308281    0.437252450119847    0.887729673724980  0.0000
  O1     O1        0.156478114559459    0.521699648814862    0.884728154528912  0.0000
  O1     O1        0.726466021645151    0.222020332704756    0.016548691390365  0.0000
  O3     O3        0.766310506475876    0.759318988990711    0.001047270323783  0.0000
  O1     O1        0.227775986821457    0.207628529530325    0.950420098606793  0.0000
  O1     O1        0.268492705710650    0.757160909357661    0.944866393766151  0.0000
