data_c01384.vasp
_audit_creation_method             Generated by GULP
_audit_author_name                 Salvador R. G. Balestra
_symmetry_space_group_name_H-M     'P 1             '
_symmetry_Int_Tables_number        1

loop_
_symmetry_equiv_pos_site_id
_symmetry_equiv_pos_as_xyz
_cell_length_a                       17.8349
_cell_length_b                        7.8985
_cell_length_c                       10.0773
_cell_angle_alpha                   90.0409
_cell_angle_beta                    90.3441
_cell_angle_gamma                   89.4436

loop_
_atom_site_label
_atom_site_type_symbol
_atom_site_fract_x
_atom_site_fract_y
_atom_site_fract_z
_atom_site_charge
  Ge     Ge        0.052090000000021    0.000000000000000    0.372269999999958  0.0000
  Ge     Ge        0.551312350895715    0.981983492782396    0.629431210153336  0.0000
  Ge     Ge        0.549562758795176    0.982172907628800    0.147597572774484  0.0000
  Ge     Ge        0.946707448484420    0.998529891758821    0.112331323479078  0.0000
  Ge     Ge        0.446115937435578    0.988396631704430    0.887858533546551  0.0000
  Ge     Ge        0.048723025351267    0.005752757749298    0.852426368452730  0.0000
  Ge     Ge        0.157343267692946    0.304070848821673    0.292932968196516  0.0000
  Ge     Ge        0.348065943423640    0.672746009917905    0.284977425779848  0.0000
  Ge     Ge        0.652856701325583    0.667593387981064    0.701009549464414  0.0000
  Ge     Ge        0.834415159153730    0.701581859414124    0.715284746115056  0.0000
  Ge     Ge        0.667698331911213    0.266034478717835    0.709733461090679  0.0000
  Ge     Ge        0.165424715434098    0.706740759469919    0.296698337898879  0.0000
  Ge     Ge        0.667002046041930    0.263348401038314    0.031266312635633  0.0000
  Ge     Ge        0.827895622480096    0.717317471070844    0.037940963022479  0.0000
  Ge     Ge        0.326558715024027    0.275675831438958    0.956597484244122  0.0000
  Ge     Ge        0.165744922685367    0.720844300556988    0.976018437207222  0.0000
  Ge     Ge        0.346626434424749    0.676413359593349    0.966850053640495  0.0000
  Ge     Ge        0.147604374900704    0.313288029842539    0.967887299177716  0.0000
  Ge     Ge        0.648915802413677    0.671597690298175    0.026286681547423  0.0000
  Ge     Ge        0.845114455714386    0.312685320464594    0.037779636025075  0.0000
  Si     Si        0.442012501589938    0.984301146909793    0.391425348671098  0.0000
  Si     Si        0.940909287249788    0.997721896686261    0.607347655045849  0.0000
  Si     Si        0.845770083900061    0.304607835815049    0.723308118913736  0.0000
  Si     Si        0.334554075548263    0.276826690593121    0.275329653472020  0.0000
  O1     O1        0.102462905950624    0.181787971723913    0.391578989286267  0.0000
  O3     O3        0.404317428404173    0.801526440158992    0.381322483903945  0.0000
  O2     O2        0.899672895549635    0.173919177007862    0.645089369579503  0.0000
  O1     O1        0.592465940376102    0.787578651077773    0.606412413930248  0.0000
  O3     O3        0.887579059729603    0.837257438258653    0.621290535903068  0.0000
  O1     O1        0.620834303503231    0.128848132371724    0.609088878867095  0.0000
  O1     O1        0.113598777413809    0.835151899774541    0.398838120708026  0.0000
  O2     O2        0.385336262744473    0.134159850820950    0.347572360832403  0.0000
  O3     O3        0.967949352293262    0.003224570129097    0.455717914170393  0.0000
  O3     O3        0.468688916406331    0.012557327824160    0.542367857683203  0.0000
  O1     O1        0.024210888800374    0.979221114597286    0.208614561541872  0.0000
  O3     O3        0.519400648823704    0.988969204454762    0.310482700641650  0.0000
  O3     O3        0.018005681157014    0.980792103976548    0.689984253196510  0.0000
  O1     O1        0.523624212273826    0.003080939023702    0.792585162978023  0.0000
  O1     O1        0.619120680521164    0.128460890683628    0.130897732484975  0.0000
  O1     O1        0.877901363132418    0.850081081730626    0.137231564160682  0.0000
  O1     O1        0.378414519421131    0.142275334059245    0.861557238379156  0.0000
  O1     O1        0.121221974351081    0.865060318631770    0.877195041949865  0.0000
  O1     O1        0.404919241514941    0.793920312157014    0.870380365214903  0.0000
  O1     O1        0.081242127562527    0.207185498930768    0.879107157230753  0.0000
  O1     O1        0.583470527522966    0.782442730709997    0.113662113078850  0.0000
  O1     O1        0.908617801287182    0.198626803254246    0.128206202254099  0.0000
  O1     O1        0.473832249297981    0.024981458203470    0.049380752232310  0.0000
  O1     O1        0.973972312956732    0.964020254715360    0.950578487827584  0.0000
  O1     O1        0.157144155502495    0.504114095189428    0.355143420323772  0.0000
  O3     O3        0.347098804752831    0.462507650131303    0.338638154733491  0.0000
  O3     O3        0.845201202696654    0.492019386645071    0.660792067504377  0.0000
  O1     O1        0.654947995094123    0.464359573643204    0.644030573282450  0.0000
  O3     O3        0.248420488140745    0.223754308956297    0.289123316899299  0.0000
  O1     O1        0.259036315754136    0.754285541682619    0.294383578498141  0.0000
  O3     O3        0.763162010756412    0.225664728281360    0.719984550193676  0.0000
  O1     O1        0.741412008387329    0.753069341638948    0.698390822642751  0.0000
  O1     O1        0.123423605779928    0.305051185699017    0.133120380230915  0.0000
  O1     O1        0.382152082094660    0.678038871058226    0.127042621177776  0.0000
  O3     O3        0.874928772223333    0.320720920519184    0.873328449036948  0.0000
  O1     O1        0.621961748427960    0.665392345818185    0.862358371963130  0.0000
  O1     O1        0.860848249069425    0.718561655308232    0.877207162857151  0.0000
  O1     O1        0.635203872235912    0.252947983098748    0.869801495086174  0.0000
  O1     O1        0.132558048962901    0.722508911904204    0.135954427863245  0.0000
  O3     O3        0.355495293264431    0.288037650463105    0.121533376272880  0.0000
  O1     O1        0.657011080413255    0.469196236326081    0.085513781571605  0.0000
  O1     O1        0.837130589245256    0.513411605153533    0.097778393892463  0.0000
  O1     O1        0.338218928735823    0.479323929220024    0.899916994994134  0.0000
  O1     O1        0.153461711253742    0.518681288008755    0.915563802966167  0.0000
  O1     O1        0.760504899848029    0.211496239520153    0.038371986340015  0.0000
  O1     O1        0.734516130642036    0.770394962016846    0.035285862997445  0.0000
  O1     O1        0.234482169570112    0.219037301497607    0.950185872723526  0.0000
  O1     O1        0.259212893545673    0.768219593770216    0.979621948734528  0.0000
