data_c01389.vasp
_audit_creation_method             Generated by GULP
_audit_author_name                 Salvador R. G. Balestra
_symmetry_space_group_name_H-M     'P 1             '
_symmetry_Int_Tables_number        1

loop_
_symmetry_equiv_pos_site_id
_symmetry_equiv_pos_as_xyz
_cell_length_a                       17.4677
_cell_length_b                        7.8148
_cell_length_c                       10.2960
_cell_angle_alpha                   89.6529
_cell_angle_beta                    90.2229
_cell_angle_gamma                   88.4522

loop_
_atom_site_label
_atom_site_type_symbol
_atom_site_fract_x
_atom_site_fract_y
_atom_site_fract_z
_atom_site_charge
  Ge     Ge        0.052090000000021    0.000000000000000    0.372269999999958  0.0000
  Ge     Ge        0.548883330041682    0.997757351796814    0.567008651637078  0.0000
  Ge     Ge        0.544405266401091    0.012876421416599    0.065994358169789  0.0000
  Ge     Ge        0.944217669157343    0.945485004546825    0.118951113772549  0.0000
  Ge     Ge        0.436932892819520    0.957513501199852    0.812298644121677  0.0000
  Ge     Ge        0.146849679484402    0.312110760766936    0.251304282278590  0.0000
  Ge     Ge        0.354222308082706    0.638493043448555    0.244434205357708  0.0000
  Ge     Ge        0.829344445818085    0.231801100832884    0.689917696661063  0.0000
  Ge     Ge        0.672880538386629    0.713548792422185    0.678911296259518  0.0000
  Ge     Ge        0.856041868015740    0.633514489195953    0.686691492819985  0.0000
  Ge     Ge        0.645650865204177    0.310056173438517    0.682591305704158  0.0000
  Ge     Ge        0.172581188445231    0.715809760218071    0.259158705149768  0.0000
  Ge     Ge        0.330072768434054    0.231939917054167    0.239791712604888  0.0000
  Ge     Ge        0.642556898554846    0.324882712236432    0.998938533329239  0.0000
  Ge     Ge        0.851529908962082    0.634448042747462    0.001340953026715  0.0000
  Ge     Ge        0.322613726307661    0.254084564539971    0.926788572093833  0.0000
  Ge     Ge        0.163546109613093    0.729315641282100    0.945950058502389  0.0000
  Ge     Ge        0.139539619730982    0.328379357652970    0.935942407553751  0.0000
  Ge     Ge        0.670821717554153    0.727621464931794    0.993481498667825  0.0000
  Ge     Ge        0.822676455576995    0.232159230798329    0.005454849471325  0.0000
  Si     Si        0.447497704547524    0.947640399804320    0.317593683656977  0.0000
  Si     Si        0.950394559483331    0.948908100955502    0.621674752930931  0.0000
  Si     Si        0.045894680045960    0.018728026656523    0.869602741594779  0.0000
  Si     Si        0.343341051453335    0.652653766179865    0.937826180334756  0.0000
  O1     O1        0.081285881759622    0.203259368420171    0.339958106606434  0.0000
  O3     O3        0.419391819178589    0.754333004530433    0.333424865059186  0.0000
  O3     O3        0.879418791140974    0.081061525316791    0.599072653403291  0.0000
  O1     O1        0.626392521153617    0.861163467116163    0.582150866942260  0.0000
  O3     O3        0.921989911525903    0.756796895018577    0.604539962118979  0.0000
  O1     O1        0.577621599272851    0.201289549673281    0.598554358971454  0.0000
  O1     O1        0.128583957930193    0.860262506139976    0.359180910949320  0.0000
  O3     O3        0.377916469325851    0.084522788479299    0.338524788982244  0.0000
  O3     O3        0.020909851472984    0.990255276922952    0.531497470269114  0.0000
  O3     O3        0.519655217290094    0.986978907594241    0.405201625063211  0.0000
  O1     O1        0.977120752769396    0.945897117331247    0.275345332508036  0.0000
  O3     O3        0.469750629206085    0.969281022895739    0.165800926388780  0.0000
  O2     O2        0.977428294389880    0.972675468425925    0.772519565495223  0.0000
  O1     O1        0.470920120273075    0.942232941072822    0.656527968800080  0.0000
  O1     O1        0.576236944140790    0.217005536474234    0.087119589490543  0.0000
  O1     O1        0.918967970004864    0.739464032678289    0.087892160567045  0.0000
  O1     O1        0.368499370245861    0.119195950457847    0.821388216123262  0.0000
  O3     O3        0.117488545824760    0.885648539133664    0.854480072000754  0.0000
  O3     O3        0.400353945667926    0.760010495011463    0.851170846559661  0.0000
  O3     O3        0.074810116039286    0.210062627866674    0.847667481159133  0.0000
  O1     O1        0.620624212079250    0.870653985833143    0.085967188655240  0.0000
  O1     O1        0.866990857971577    0.084071696766879    0.104383184842634  0.0000
  O1     O1        0.514274238141783    0.000085319229367    0.907092471901820  0.0000
  O3     O3        0.016956793547910    0.007975238043029    0.017449482391489  0.0000
  O1     O1        0.161003198825197    0.510330483020605    0.315547524647724  0.0000
  O1     O1        0.347980482171915    0.433818606068490    0.299818596456263  0.0000
  O1     O1        0.847022496297369    0.432116753187142    0.625398862587169  0.0000
  O1     O1        0.658401103030147    0.511227680264294    0.620014137686083  0.0000
  O1     O1        0.233402838389689    0.200373239152320    0.245275485318395  0.0000
  O1     O1        0.268753478131358    0.750249111746044    0.254025488658000  0.0000
  O1     O1        0.732558435252827    0.199281567015416    0.680997619024789  0.0000
  O1     O1        0.769707024449662    0.744300372057781    0.682034749106878  0.0000
  O1     O1        0.113012083982031    0.342096251669715    0.095989383007682  0.0000
  O3     O3        0.378679031483065    0.626108773212373    0.081377207864158  0.0000
  O1     O1        0.857444993502845    0.219686960031292    0.849713626187595  0.0000
  O1     O1        0.639050598402334    0.736586578219978    0.834841937113576  0.0000
  O1     O1        0.883587027792631    0.606982613714470    0.845354727970586  0.0000
  O1     O1        0.614573943868507    0.339034693535783    0.838636584556181  0.0000
  O1     O1        0.134282529946613    0.738802363362857    0.104976676769518  0.0000
  O1     O1        0.359428256991291    0.220762324817095    0.080241233330182  0.0000
  O1     O1        0.656343567819594    0.524873465456378    0.056365387026232  0.0000
  O1     O1        0.836344217481143    0.435722564484567    0.064838434275819  0.0000
  O3     O3        0.331717452013198    0.466231543218592    0.877592399102685  0.0000
  O1     O1        0.143833098308626    0.533546217174362    0.878962554979967  0.0000
  O1     O1        0.726146097827301    0.201724421146039    0.000602896425326  0.0000
  O1     O1        0.767753573084910    0.757137409771249    0.997031823498210  0.0000
  O1     O1        0.226369601263733    0.220327140504490    0.929774652541554  0.0000
  O3     O3        0.261791733820943    0.754462135865688    0.946702110333367  0.0000
