data_c01359.vasp
_audit_creation_method             Generated by GULP
_audit_author_name                 Salvador R. G. Balestra
_symmetry_space_group_name_H-M     'P 1             '
_symmetry_Int_Tables_number        1

loop_
_symmetry_equiv_pos_site_id
_symmetry_equiv_pos_as_xyz
_cell_length_a                       17.5088
_cell_length_b                        7.8174
_cell_length_c                       10.2317
_cell_angle_alpha                   90.1672
_cell_angle_beta                    89.9019
_cell_angle_gamma                   91.7099

loop_
_atom_site_label
_atom_site_type_symbol
_atom_site_fract_x
_atom_site_fract_y
_atom_site_fract_z
_atom_site_charge
  Ge     Ge        0.052090000000021    0.000000000000000    0.372269999999958  0.0000
  Ge     Ge        0.548248355000992    0.000877094266061    0.609925757402454  0.0000
  Ge     Ge        0.546403946986678    0.996126883886163    0.109228564868348  0.0000
  Ge     Ge        0.951787360265793    0.064589148850930    0.112862148072293  0.0000
  Ge     Ge        0.438400735076133    0.051981787310632    0.857864414108798  0.0000
  Ge     Ge        0.054343684977533    0.999881591368206    0.853630107732576  0.0000
  Ge     Ge        0.173999662154287    0.284071327040717    0.288136326763275  0.0000
  Ge     Ge        0.330634373503880    0.771231244698519    0.281468657803368  0.0000
  Ge     Ge        0.856038576915586    0.366254270824726    0.726574984995821  0.0000
  Ge     Ge        0.645063210694059    0.689498049580937    0.721463966545385  0.0000
  Ge     Ge        0.828445260442668    0.768528842822769    0.722476904881567  0.0000
  Ge     Ge        0.672906454053172    0.287157468143398    0.721216463392922  0.0000
  Ge     Ge        0.149135210996329    0.689597682449292    0.290439825864216  0.0000
  Ge     Ge        0.355859329234040    0.363151889512497    0.283429598076983  0.0000
  Ge     Ge        0.672197983510927    0.282953971842641    0.038233390496054  0.0000
  Ge     Ge        0.826115181574000    0.776077841179107    0.039551134807233  0.0000
  Ge     Ge        0.146679825052582    0.685521083449542    0.972164099877584  0.0000
  Ge     Ge        0.173083805423944    0.285455503459483    0.972649025167786  0.0000
  Ge     Ge        0.646062340697539    0.686034484615406    0.040187956158967  0.0000
  Ge     Ge        0.852198300550042    0.373647079865337    0.044467943146823  0.0000
  Si     Si        0.447715876576751    0.055104358401194    0.360569639494786  0.0000
  Si     Si        0.946483725515843    0.055969481388136    0.612978155499191  0.0000
  Si     Si        0.352893070088555    0.366017931959622    0.978159292162926  0.0000
  Si     Si        0.326909972091738    0.758371939022075    0.973047526937988  0.0000
  O1     O1        0.125843256933456    0.147536540916436    0.391383193024304  0.0000
  O3     O3        0.379422373188751    0.914587136053675    0.381454927191553  0.0000
  O3     O3        0.923773396237821    0.248798925621121    0.645014485840770  0.0000
  O1     O1        0.576830833135278    0.796556246213981    0.637367548175579  0.0000
  O3     O3        0.875055475615242    0.926904941141318    0.633446385377287  0.0000
  O1     O1        0.625995738008879    0.135687371291019    0.628869053609429  0.0000
  O1     O1        0.086248774368174    0.798238998069379    0.386974521424724  0.0000
  O3     O3        0.418002925311217    0.246477209153509    0.377814645823662  0.0000
  O3     O3        0.972152582673576    0.043072195998093    0.462044190370565  0.0000
  O3     O3        0.520265648140674    0.018271058005896    0.447282263300356  0.0000
  O1     O1        0.026133539701365    0.019526834902061    0.209703104696929  0.0000
  O3     O3        0.470214499237316    0.034235192368118    0.207818134522807  0.0000
  O3     O3        0.021177809444764    0.003571071705089    0.694199231303271  0.0000
  O1     O1        0.469186154583751    0.052195379240316    0.698890430830451  0.0000
  O1     O1        0.620929423538317    0.141856227447948    0.132231873487461  0.0000
  O1     O1        0.877148863855099    0.918011340635450    0.133077590572667  0.0000
  O3     O3        0.407114925486191    0.258113596271906    0.886016348742144  0.0000
  O1     O1        0.081936108906991    0.794611147950925    0.883743464121496  0.0000
  O3     O3        0.368101643540740    0.892732278796365    0.877250681859972  0.0000
  O1     O1        0.134415214600265    0.130271848055141    0.874065778428479  0.0000
  O1     O1        0.580732031433726    0.794595120321234    0.130067040356945  0.0000
  O1     O1        0.916821004461275    0.266087915309793    0.135724516627540  0.0000
  O1     O1        0.516878057631129    0.011494531815673    0.949168669853356  0.0000
  O1     O1        0.981562644552209    0.061204440277397    0.951549783162031  0.0000
  O1     O1        0.162196468689500    0.488922189517252    0.347230069388629  0.0000
  O1     O1        0.347797907022015    0.567483680928061    0.338210302928050  0.0000
  O1     O1        0.847055482917037    0.567782861653056    0.661861252046107  0.0000
  O1     O1        0.657094528408951    0.487940054718988    0.659824972944737  0.0000
  O1     O1        0.270140930713078    0.250938414281124    0.286911572761630  0.0000
  O1     O1        0.235033710179238    0.804963377705284    0.289602232887876  0.0000
  O1     O1        0.769619188369453    0.256874425744229    0.720330478957231  0.0000
  O1     O1        0.732046887253244    0.799511118636388    0.716385803314065  0.0000
  O1     O1        0.139409592760565    0.266881590843343    0.130387169823459  0.0000
  O3     O3        0.359410692538362    0.785791423606406    0.118774250342695  0.0000
  O1     O1        0.883642684246203    0.395059707762845    0.885264366255943  0.0000
  O1     O1        0.616116830913969    0.667789721895501    0.880639804562961  0.0000
  O1     O1        0.859704057627303    0.784390967252263    0.880904506981968  0.0000
  O1     O1        0.640144360764670    0.271850491587460    0.879238481712050  0.0000
  O1     O1        0.116803790024238    0.676609540442284    0.131971746381675  0.0000
  O3     O3        0.388159385593160    0.373635635460587    0.122756235992170  0.0000
  O1     O1        0.660346089622053    0.487126338867694    0.099954817633455  0.0000
  O1     O1        0.837851630575990    0.573528334708315    0.103567198605112  0.0000
  O2     O2        0.342015513298804    0.561273890447629    0.928267741617287  0.0000
  O1     O1        0.150739094698707    0.482106645282104    0.911674026726122  0.0000
  O1     O1        0.768499202255202    0.250494771388749    0.039456087176590  0.0000
  O1     O1        0.730026261601856    0.809016487294806    0.037695785864134  0.0000
  O3     O3        0.270949800547978    0.268787896559127    0.982802720916373  0.0000
  O3     O3        0.236670037678495    0.785846154518322    0.971043150567871  0.0000
