data_c01371.vasp
_audit_creation_method             Generated by GULP
_audit_author_name                 Salvador R. G. Balestra
_symmetry_space_group_name_H-M     'P 1             '
_symmetry_Int_Tables_number        1

loop_
_symmetry_equiv_pos_site_id
_symmetry_equiv_pos_as_xyz
_cell_length_a                       17.6173
_cell_length_b                        7.8283
_cell_length_c                       10.0610
_cell_angle_alpha                   90.2585
_cell_angle_beta                    89.5454
_cell_angle_gamma                   88.3762

loop_
_atom_site_label
_atom_site_type_symbol
_atom_site_fract_x
_atom_site_fract_y
_atom_site_fract_z
_atom_site_charge
  Ge     Ge        0.052090000000021    0.000000000000000    0.372269999999958  0.0000
  Ge     Ge        0.547587844545305    0.995790277564874    0.646836460174495  0.0000
  Ge     Ge        0.546068903973584    0.002999050666930    0.161279057514838  0.0000
  Ge     Ge        0.944251397975676    0.940971335158951    0.121486599799926  0.0000
  Ge     Ge        0.441773011232645    0.940995813735217    0.905829926553462  0.0000
  Ge     Ge        0.047420598581950    0.003345480191099    0.862590603361280  0.0000
  Ge     Ge        0.144612066398699    0.320029598431313    0.299954715040039  0.0000
  Ge     Ge        0.349013571683652    0.644530016938187    0.289140771898842  0.0000
  Ge     Ge        0.827331317200977    0.231102300841810    0.726132252067136  0.0000
  Ge     Ge        0.671512550749666    0.712407445639562    0.720865702030754  0.0000
  Ge     Ge        0.853180943572925    0.633919263383567    0.729397149316489  0.0000
  Ge     Ge        0.645924191436293    0.310032622343091    0.717209271553581  0.0000
  Ge     Ge        0.327467418123509    0.243418535004718    0.294130156119708  0.0000
  Ge     Ge        0.640374923290810    0.312516922076362    0.041067133508536  0.0000
  Ge     Ge        0.848051238896882    0.627778027560319    0.052440412920537  0.0000
  Ge     Ge        0.322736871390395    0.240096190757842    0.974213822736955  0.0000
  Ge     Ge        0.169284404952330    0.717617217483831    0.982136251066359  0.0000
  Ge     Ge        0.140187919744287    0.315396987281435    0.979211464942735  0.0000
  Ge     Ge        0.668678343682552    0.716744232797000    0.043863445393820  0.0000
  Ge     Ge        0.820342021527794    0.227366433345744    0.049157526695657  0.0000
  Si     Si        0.440410575089494    0.953965865300059    0.406977405126777  0.0000
  Si     Si        0.945268084229700    0.941402872128448    0.614869744649061  0.0000
  Si     Si        0.171188030122932    0.714047307786207    0.299020076934092  0.0000
  Si     Si        0.344988742520831    0.634048872417832    0.972479142130197  0.0000
  O1     O1        0.085815975476973    0.200558769306304    0.397765509844336  0.0000
  O3     O3        0.415795215593388    0.764504787367124    0.366334703658900  0.0000
  O3     O3        0.875361120069362    0.073896160717895    0.636259968712909  0.0000
  O1     O1        0.622090943499622    0.852494604305040    0.621966234144046  0.0000
  O3     O3        0.920636859260127    0.750068691677193    0.646096508421371  0.0000
  O1     O1        0.581845928383272    0.196698515013177    0.627001078247214  0.0000
  O3     O3        0.126081550236280    0.850980015323157    0.390058437805513  0.0000
  O3     O3        0.371077265028658    0.087615693840899    0.389667639434972  0.0000
  O3     O3        0.972256336805284    0.951509249279940    0.461883177859228  0.0000
  O3     O3        0.466338326783037    0.954296513678602    0.559751096686023  0.0000
  O1     O1        0.022025931895925    0.990229862857573    0.209546393053219  0.0000
  O3     O3        0.515313939205662    0.005681404862389    0.325734173618856  0.0000
  O3     O3        0.019289379051819    0.991379736076065    0.698142455935457  0.0000
  O1     O1        0.519889236018027    0.970812183336846    0.810906916951730  0.0000
  O1     O1        0.572022638058784    0.208031512991322    0.126732965286343  0.0000
  O1     O1        0.911312877354816    0.738566391396963    0.145472370172172  0.0000
  O1     O1        0.373475593502274    0.098331537596073    0.877181694053909  0.0000
  O1     O1        0.126147653179042    0.873876419656569    0.891834410309991  0.0000
  O3     O3        0.403705311773563    0.739230187023337    0.885635255426524  0.0000
  O1     O1        0.074049987406697    0.209996413350844    0.889679297065947  0.0000
  O1     O1        0.622793849296157    0.865364018655300    0.142320435857541  0.0000
  O1     O1        0.869613880111455    0.085040771598251    0.145167306063889  0.0000
  O1     O1        0.470645897230234    0.943619299296994    0.068937095354850  0.0000
  O1     O1        0.971630684441162    0.945774833517452    0.955674571585428  0.0000
  O3     O3        0.156305899306148    0.525565007914180    0.356959878146493  0.0000
  O1     O1        0.346523176655846    0.443686139288129    0.355349741237066  0.0000
  O1     O1        0.844604225003195    0.431692070065168    0.664136995174596  0.0000
  O1     O1        0.658640001193629    0.510032388209268    0.657083070231427  0.0000
  O1     O1        0.231703835305020    0.215951006480237    0.296026348731354  0.0000
  O3     O3        0.260693969538255    0.746820651774327    0.301244748961406  0.0000
  O1     O1        0.731717240973345    0.197692700135377    0.718693836338176  0.0000
  O1     O1        0.767444586794363    0.744323587577128    0.721932196819683  0.0000
  O1     O1        0.109572663314316    0.325347099850374    0.141887940952181  0.0000
  O3     O3        0.372885239314224    0.612073095430782    0.124255704538981  0.0000
  O1     O1        0.855484433772277    0.218924429763743    0.888580801089713  0.0000
  O1     O1        0.638126774153152    0.728934480541575    0.882164362423147  0.0000
  O1     O1        0.880131928280143    0.605603157715378    0.890677615340244  0.0000
  O1     O1        0.613417889278873    0.329521504098112    0.878158132064738  0.0000
  O3     O3        0.140948043226030    0.725111562951111    0.148045258414772  0.0000
  O1     O1        0.358115008123900    0.220739073314463    0.132687791961817  0.0000
  O1     O1        0.652993291687050    0.513559869782225    0.102784755200949  0.0000
  O1     O1        0.833306626332272    0.429558931680640    0.114185463063865  0.0000
  O3     O3        0.333668086936270    0.446826259255803    0.913479798391762  0.0000
  O1     O1        0.147961243743091    0.519805157859800    0.921011057599395  0.0000
  O1     O1        0.724775377299076    0.194410171363254    0.046776906288421  0.0000
  O1     O1        0.764496514682435    0.747772739462113    0.045853987893095  0.0000
  O1     O1        0.227129166358518    0.207868957056854    0.973810791453426  0.0000
  O3     O3        0.266103212806952    0.744033686272113    0.976884783693440  0.0000
