data_c01343.vasp
_audit_creation_method             Generated by GULP
_audit_author_name                 Salvador R. G. Balestra
_symmetry_space_group_name_H-M     'P 1             '
_symmetry_Int_Tables_number        1

loop_
_symmetry_equiv_pos_site_id
_symmetry_equiv_pos_as_xyz
_cell_length_a                       17.6841
_cell_length_b                        7.8355
_cell_length_c                       10.3914
_cell_angle_alpha                   90.6658
_cell_angle_beta                    90.2162
_cell_angle_gamma                   89.5607

loop_
_atom_site_label
_atom_site_type_symbol
_atom_site_fract_x
_atom_site_fract_y
_atom_site_fract_z
_atom_site_charge
  Ge     Ge        0.052090000000021    0.000000000000000    0.372269999999958  0.0000
  Ge     Ge        0.943222993941217    0.983160090336643    0.620507505998713  0.0000
  Ge     Ge        0.547442626757827    0.023086899738559    0.121101571868118  0.0000
  Ge     Ge        0.940475518502321    0.988485386841961    0.127738876808793  0.0000
  Ge     Ge        0.046566696294584    0.997316015922454    0.878498555155065  0.0000
  Ge     Ge        0.167176105862919    0.291771371691527    0.262199840272581  0.0000
  Ge     Ge        0.330737319636549    0.740377732235889    0.261880620359026  0.0000
  Ge     Ge        0.820821703133475    0.265914142271382    0.696351811008041  0.0000
  Ge     Ge        0.659889044751448    0.735667018221781    0.700134629970132  0.0000
  Ge     Ge        0.841331829326938    0.672772645881944    0.694894967414083  0.0000
  Ge     Ge        0.639390642308609    0.328305733630757    0.700737083479639  0.0000
  Ge     Ge        0.349630433022262    0.333736173944328    0.268943100446851  0.0000
  Ge     Ge        0.639427959286388    0.338289107771812    0.012879952463467  0.0000
  Ge     Ge        0.847749566418902    0.672342163063613    0.007741797546063  0.0000
  Ge     Ge        0.350997802449388    0.322667476623856    0.955537182252563  0.0000
  Ge     Ge        0.151724600016504    0.684836300445691    0.949567638325840  0.0000
  Ge     Ge        0.332563320032988    0.732189194992514    0.949117449041136  0.0000
  Ge     Ge        0.169207348599611    0.275638797305540    0.950833334077295  0.0000
  Ge     Ge        0.667042141888381    0.743476532985240    0.012255689813011  0.0000
  Ge     Ge        0.820131667517429    0.266074955126421    0.008641332135337  0.0000
  Si     Si        0.443254764075229    0.023562302238385    0.371361987764973  0.0000
  Si     Si        0.544384919808321    0.017079441127363    0.617126071225523  0.0000
  Si     Si        0.446174020355248    0.008127019825736    0.867447430524809  0.0000
  Si     Si        0.152763759663865    0.693681435156488    0.255709699886939  0.0000
  O1     O1        0.113396626929748    0.166600096893323    0.358535695217665  0.0000
  O3     O3        0.373378453933815    0.895874165838525    0.353679690506319  0.0000
  O1     O1        0.872323531042989    0.132298788910595    0.598723651137673  0.0000
  O3     O3        0.610102424389177    0.876150232873992    0.603445819142221  0.0000
  O1     O1        0.903455044281547    0.785230699787578    0.602980349395435  0.0000
  O3     O3        0.578535968899826    0.204711326339977    0.608040731149822  0.0000
  O3     O3        0.095242700309746    0.806034714861747    0.339360536283355  0.0000
  O3     O3        0.412854707654631    0.215661196268910    0.359344791883587  0.0000
  O1     O1        0.022291226911510    0.003107312473551    0.529644383221091  0.0000
  O2     O2        0.478697846609263    0.993148350930269    0.512128632478342  0.0000
  O1     O1        0.970499753820741    0.015859469246110    0.283886522056006  0.0000
  O3     O3        0.508226012881602    0.983726673243712    0.268558134267192  0.0000
  O1     O1        0.971648375748705    0.015973347465843    0.778449161390350  0.0000
  O2     O2        0.509373967054835    0.987489277406590    0.758603596851128  0.0000
  O1     O1        0.575231258522154    0.230355647248756    0.104092185252098  0.0000
  O1     O1        0.913436714997924    0.781488268617063    0.096372969213085  0.0000
  O3     O3        0.412737403477168    0.199076141298686    0.865145405489736  0.0000
  O1     O1        0.086060085633628    0.796005231966566    0.864374980641789  0.0000
  O3     O3        0.379897965148719    0.870319249604788    0.850200938497945  0.0000
  O1     O1        0.118316443428835    0.141821197596651    0.854658961173637  0.0000
  O1     O1        0.625282576006847    0.892808690827465    0.109053161152564  0.0000
  O1     O1        0.864151408361753    0.121036447592450    0.104385664380891  0.0000
  O3     O3        0.482384036208505    0.965335999714840    0.005207513802715  0.0000
  O1     O1        0.015547199746456    0.038631732430797    0.032602251128869  0.0000
  O3     O3        0.159530911040743    0.504358885180094    0.311366235957248  0.0000
  O1     O1        0.346617894818667    0.540656249259744    0.323727396231117  0.0000
  O1     O1        0.830694787204787    0.469721947393365    0.637982150000659  0.0000
  O1     O1        0.646627142843772    0.530436850432941    0.642225888673570  0.0000
  O1     O1        0.261680738465447    0.242966961208155    0.272922693383605  0.0000
  O3     O3        0.234606450618005    0.782761994686060    0.257823586156630  0.0000
  O1     O1        0.725658143093546    0.224900737814488    0.698510079771525  0.0000
  O1     O1        0.755024231971599    0.777323159185245    0.695542619286012  0.0000
  O1     O1        0.136879077520242    0.266614719279639    0.107045767028303  0.0000
  O1     O1        0.362629868670554    0.742489693658013    0.106690700164977  0.0000
  O1     O1        0.852552286879445    0.253769055359477    0.853049486237005  0.0000
  O1     O1        0.631945086281826    0.749888074031029    0.857699498367418  0.0000
  O1     O1        0.876207129650300    0.663939925233389    0.849700270202049  0.0000
  O1     O1        0.607511891101020    0.342975679655102    0.856157329621988  0.0000
  O3     O3        0.122946286360430    0.683722747839106    0.109582404418520  0.0000
  O1     O1        0.381720800006482    0.328836252352815    0.112740293116805  0.0000
  O1     O1        0.650982015387072    0.541163746062285    0.070520041973353  0.0000
  O1     O1        0.837066019275233    0.470507354598225    0.065289710186724  0.0000
  O1     O1        0.345486083725657    0.524517840834372    0.895866058776011  0.0000
  O1     O1        0.159253632202505    0.480386230700586    0.894065734597209  0.0000
  O1     O1        0.724625606599978    0.231099975322174    0.010573189882929  0.0000
  O1     O1        0.762321363386456    0.778972572664414    0.009903975785277  0.0000
  O1     O1        0.263870402664616    0.227418668180204    0.953614614493946  0.0000
  O1     O1        0.238232235633840    0.782395692131118    0.942527430508302  0.0000
