data_c01301.vasp
_audit_creation_method             Generated by GULP
_audit_author_name                 Salvador R. G. Balestra
_symmetry_space_group_name_H-M     'P 1             '
_symmetry_Int_Tables_number        1

loop_
_symmetry_equiv_pos_site_id
_symmetry_equiv_pos_as_xyz
_cell_length_a                       17.4954
_cell_length_b                        7.8517
_cell_length_c                       10.2478
_cell_angle_alpha                   89.2495
_cell_angle_beta                    90.6420
_cell_angle_gamma                   91.6688

loop_
_atom_site_label
_atom_site_type_symbol
_atom_site_fract_x
_atom_site_fract_y
_atom_site_fract_z
_atom_site_charge
  Ge     Ge        0.052090000000021    0.000000000000000    0.372269999999958  0.0000
  Ge     Ge        0.943555642469420    0.049520775868096    0.618334809189563  0.0000
  Ge     Ge        0.548215634999575    0.990819695861604    0.133578082801043  0.0000
  Ge     Ge        0.952045091024824    0.057395799004690    0.112293376029941  0.0000
  Ge     Ge        0.442990518923336    0.057417175341746    0.874784049596714  0.0000
  Ge     Ge        0.058708588898200    0.011111347827750    0.861333080059527  0.0000
  Ge     Ge        0.173389958323374    0.287128093707058    0.291502408476058  0.0000
  Ge     Ge        0.331812042868505    0.767712286211687    0.299604827993397  0.0000
  Ge     Ge        0.847848809919418    0.360600985833085    0.732946947244070  0.0000
  Ge     Ge        0.637486363471735    0.685698393057012    0.738563200312151  0.0000
  Ge     Ge        0.821533136314309    0.760587564644663    0.729695026872940  0.0000
  Ge     Ge        0.664406399459731    0.283504305601176    0.737668496172605  0.0000
  Ge     Ge        0.150575954985681    0.692626102495147    0.298883604246441  0.0000
  Ge     Ge        0.356894155206919    0.363024335482830    0.296240211694093  0.0000
  Ge     Ge        0.670423124438291    0.280449842456870    0.055062684251749  0.0000
  Ge     Ge        0.825635131045303    0.769204959974672    0.045119427218828  0.0000
  Ge     Ge        0.357674454651986    0.380905418872718    0.983087574877486  0.0000
  Ge     Ge        0.171816548462588    0.308813204963478    0.977738026070393  0.0000
  Ge     Ge        0.644742604631365    0.682552278409651    0.054744216386454  0.0000
  Ge     Ge        0.850665983241064    0.368176111144635    0.051963705242846  0.0000
  Si     Si        0.446941524422360    0.052018009217040    0.382799133834014  0.0000
  Si     Si        0.545537255821558    0.996162662730128    0.629684312642242  0.0000
  Si     Si        0.151251534602223    0.701349122054945    0.990171492494490  0.0000
  Si     Si        0.330146487766374    0.771281188977823    0.991135314871173  0.0000
  O1     O1        0.125807160409770    0.147810411417430    0.393034512111728  0.0000
  O3     O3        0.379652186816814    0.910242885921403    0.400341892935009  0.0000
  O1     O1        0.915591437364919    0.251740326003457    0.651390830423035  0.0000
  O3     O3        0.571046971792053    0.803868405735296    0.652915774239349  0.0000
  O1     O1        0.867014057081343    0.911430611450634    0.634595902975825  0.0000
  O3     O3        0.616702095625051    0.125155714682861    0.651937273759905  0.0000
  O1     O1        0.086541306266465    0.798287191358864    0.390905235354015  0.0000
  O3     O3        0.415920068032050    0.240751502148782    0.395467934066345  0.0000
  O1     O1        0.972613052080720    0.040495734226705    0.457851442924400  0.0000
  O2     O2        0.518211220203078    0.017861097158684    0.478671385970414  0.0000
  O1     O1        0.028292820584862    0.016574174722355    0.208020926705121  0.0000
  O3     O3        0.473917363123764    0.029831903163582    0.233859712868690  0.0000
  O1     O1        0.024680296968508    0.995355863057935    0.703925759332275  0.0000
  O3     O3        0.472762511417919    0.038776946125743    0.715917165644442  0.0000
  O1     O1        0.621634984521923    0.139331754687302    0.152760417544783  0.0000
  O1     O1        0.877568754072207    0.911546461327917    0.135734019834998  0.0000
  O1     O1        0.418020616319172    0.266139418187482    0.891148016072912  0.0000
  O3     O3        0.097858545945655    0.817705290714150    0.903022992749914  0.0000
  O3     O3        0.363082618497998    0.925953150387691    0.904970045734468  0.0000
  O1     O1        0.127106069224007    0.171176546547736    0.872333960997195  0.0000
  O1     O1        0.583594070871214    0.790343638366399    0.151257229979494  0.0000
  O1     O1        0.917571006687393    0.257691908890490    0.137753440619805  0.0000
  O1     O1        0.517158349115383    0.004213555936541    0.973574081219275  0.0000
  O1     O1        0.979886104618920    0.051012519347265    0.951282097892037  0.0000
  O1     O1        0.160686355662019    0.488971801659423    0.351750295488352  0.0000
  O1     O1        0.347664095371195    0.563152508043261    0.355826928031318  0.0000
  O1     O1        0.836564167321495    0.561332841579305    0.668352600183630  0.0000
  O1     O1        0.645388316248977    0.484172030222755    0.677164278304104  0.0000
  O1     O1        0.269738565705977    0.256075732699151    0.287600174742063  0.0000
  O1     O1        0.236547498273617    0.805060287935924    0.307524615894427  0.0000
  O1     O1        0.760785752222599    0.251517670969845    0.728516822693483  0.0000
  O1     O1        0.724887244627135    0.790574359872847    0.732704741976496  0.0000
  O1     O1        0.138815871915699    0.273079748281501    0.133214300490729  0.0000
  O3     O3        0.362748239876574    0.781562630899094    0.138703296229833  0.0000
  O1     O1        0.877201499277747    0.388239315397819    0.891104186842803  0.0000
  O1     O1        0.609423972266205    0.664656096435408    0.897613558156847  0.0000
  O1     O1        0.856986415562699    0.778598760047262    0.886194721987900  0.0000
  O1     O1        0.635700178096022    0.271100658876470    0.896985506233448  0.0000
  O3     O3        0.120018386254174    0.686485107091975    0.136575404458893  0.0000
  O1     O1        0.392065653107535    0.377986114182341    0.140764238280254  0.0000
  O1     O1        0.659377657138268    0.483252927884450    0.114922003912160  0.0000
  O1     O1        0.838598845662518    0.567101195161709    0.110496882298341  0.0000
  O3     O3        0.353205747054771    0.591726705187121    0.930644495041251  0.0000
  O3     O3        0.152601458513489    0.515864187202672    0.927955586940222  0.0000
  O1     O1        0.766490847413876    0.247008836807826    0.053004052063526  0.0000
  O1     O1        0.729264008236949    0.801817282162882    0.045701915381792  0.0000
  O1     O1        0.268501870378505    0.285246082336256    0.977026407867666  0.0000
  O2     O2        0.238054401162136    0.780053612495446    0.000033540226073  0.0000
