data_c01356.vasp
_audit_creation_method             Generated by GULP
_audit_author_name                 Salvador R. G. Balestra
_symmetry_space_group_name_H-M     'P 1             '
_symmetry_Int_Tables_number        1

loop_
_symmetry_equiv_pos_site_id
_symmetry_equiv_pos_as_xyz
_cell_length_a                       17.5784
_cell_length_b                        7.8132
_cell_length_c                       10.2064
_cell_angle_alpha                   89.7943
_cell_angle_beta                    90.3442
_cell_angle_gamma                   91.4951

loop_
_atom_site_label
_atom_site_type_symbol
_atom_site_fract_x
_atom_site_fract_y
_atom_site_fract_z
_atom_site_charge
  Ge     Ge        0.052090000000021    0.000000000000000    0.372269999999958  0.0000
  Ge     Ge        0.550798925207256    0.001136481927312    0.632966968124897  0.0000
  Ge     Ge        0.547392452772246    0.002940121335267    0.141382784316556  0.0000
  Ge     Ge        0.946951600852902    0.063524796465513    0.115567308345238  0.0000
  Ge     Ge        0.443219836209112    0.066945537890899    0.885589183009973  0.0000
  Ge     Ge        0.053560085095427    0.010873140351636    0.863823068844356  0.0000
  Ge     Ge        0.174128659381637    0.282172367908279    0.282380416199470  0.0000
  Ge     Ge        0.329595055512043    0.765814927226454    0.281742878432852  0.0000
  Ge     Ge        0.857136938256749    0.364374684814967    0.727788036276928  0.0000
  Ge     Ge        0.649385383557953    0.687136493332821    0.704795304508744  0.0000
  Ge     Ge        0.830536108914311    0.767255275237814    0.721441143150592  0.0000
  Ge     Ge        0.675212451941116    0.284379048751902    0.714209755267396  0.0000
  Ge     Ge        0.147807120666104    0.690107351870176    0.291037085708278  0.0000
  Ge     Ge        0.355091420627751    0.362222181829375    0.270923427508443  0.0000
  Ge     Ge        0.670486148146229    0.287255932380141    0.031487798955619  0.0000
  Ge     Ge        0.821886677564379    0.778115396618719    0.040431038057003  0.0000
  Ge     Ge        0.344304931484087    0.378346305843385    0.951476838408178  0.0000
  Ge     Ge        0.322377138205974    0.775486068821209    0.965408057528504  0.0000
  Ge     Ge        0.641861090067168    0.691967859934938    0.024595783260690  0.0000
  Ge     Ge        0.850367253291148    0.377551806461405    0.045033964315727  0.0000
  Si     Si        0.446234871456814    0.052920519485563    0.387881995849024  0.0000
  Si     Si        0.949649990515950    0.055056413743151    0.617644929874236  0.0000
  Si     Si        0.143955706497307    0.700499200139746    0.983842757268192  0.0000
  Si     Si        0.166994603110496    0.303419966434288    0.973573616839786  0.0000
  O1     O1        0.127645843219089    0.143280746467915    0.384708155082827  0.0000
  O3     O3        0.375417172365033    0.921489863219051    0.374123948253585  0.0000
  O3     O3        0.925299383124692    0.246755129691078    0.649601537957140  0.0000
  O1     O1        0.584647449349834    0.799309333277449    0.613905488438848  0.0000
  O3     O3        0.879265351900613    0.923293953824136    0.634143688718273  0.0000
  O1     O1        0.626451011648460    0.142385036685327    0.615999120738356  0.0000
  O1     O1        0.085551967257060    0.796992556488906    0.388225799465060  0.0000
  O3     O3        0.424000980672513    0.244573518095291    0.348659872361353  0.0000
  O3     O3        0.975405293789875    0.046639481612219    0.466667363390679  0.0000
  O3     O3        0.473234943704095    0.050309300367964    0.538638040054820  0.0000
  O1     O1        0.022263635449479    0.020839441036424    0.211580201267219  0.0000
  O3     O3        0.517819164222545    0.994456413799475    0.303162337031683  0.0000
  O3     O3        0.023469724967721    0.003225068654014    0.701730257968707  0.0000
  O1     O1        0.518679027558047    0.018248248897763    0.792620068058220  0.0000
  O1     O1        0.625093691437876    0.138922322988746    0.128325106111308  0.0000
  O1     O1        0.871064312221966    0.921138073635085    0.135590250699940  0.0000
  O1     O1        0.404995919248195    0.264821573533031    0.857767287260328  0.0000
  O3     O3        0.087477380469947    0.807316157949246    0.894177225389430  0.0000
  O1     O1        0.366979112086305    0.924495524924913    0.870095934290018  0.0000
  O3     O3        0.121329896917376    0.175071517555723    0.878627087160744  0.0000
  O1     O1        0.571522628662205    0.797591359215255    0.102355158229865  0.0000
  O1     O1        0.913543420793048    0.266288940930737    0.138089432307481  0.0000
  O1     O1        0.473620385665066    0.070047489098060    0.046875320094740  0.0000
  O1     O1        0.975334354919512    0.049148502954877    0.953887446464348  0.0000
  O1     O1        0.158569073443820    0.485260914237885    0.340939683431327  0.0000
  O1     O1        0.347408630250763    0.562377538836775    0.338462195021404  0.0000
  O1     O1        0.847926536645711    0.565704821867687    0.661503958062505  0.0000
  O1     O1        0.662227256572948    0.485635403885448    0.648001206304494  0.0000
  O1     O1        0.269739742161370    0.250077426003919    0.282302582693658  0.0000
  O1     O1        0.234007310617179    0.798944855810119    0.292012781759361  0.0000
  O1     O1        0.771313439158549    0.252955103336439    0.719621218010428  0.0000
  O1     O1        0.734745286385567    0.800994190352466    0.708140181778212  0.0000
  O3     O3        0.139788090115952    0.268701503598693    0.121824441795962  0.0000
  O1     O1        0.359313175446357    0.785272356603094    0.122157888288747  0.0000
  O1     O1        0.883789611371525    0.396364257715488    0.887017497196676  0.0000
  O1     O1        0.617120016297646    0.668279764741281    0.862884267857769  0.0000
  O1     O1        0.856700853115933    0.781386566788742    0.882878026803714  0.0000
  O1     O1        0.639636020930568    0.269295622512764    0.871166589920259  0.0000
  O3     O3        0.112836945349814    0.693839037910140    0.130868103412391  0.0000
  O1     O1        0.377803300417265    0.393887895961570    0.110218203369200  0.0000
  O1     O1        0.653626573416496    0.490970983218320    0.087765701883015  0.0000
  O1     O1        0.834545415144293    0.575601387565794    0.105623850713602  0.0000
  O1     O1        0.337739136846106    0.580899124688892    0.892766712297355  0.0000
  O2     O2        0.153597603813872    0.503871403355770    0.935653326698518  0.0000
  O1     O1        0.766539700941278    0.257889419522004    0.034563485842275  0.0000
  O1     O1        0.725864257582502    0.811209509574691    0.035496223594587  0.0000
  O3     O3        0.256247713387048    0.271903478027835    0.961469206142990  0.0000
  O3     O3        0.225384938597186    0.799153611066614    0.980695836443386  0.0000
