data_c01332.vasp
_audit_creation_method             Generated by GULP
_audit_author_name                 Salvador R. G. Balestra
_symmetry_space_group_name_H-M     'P 1             '
_symmetry_Int_Tables_number        1

loop_
_symmetry_equiv_pos_site_id
_symmetry_equiv_pos_as_xyz
_cell_length_a                       17.6851
_cell_length_b                        7.8281
_cell_length_c                       10.4482
_cell_angle_alpha                   90.6418
_cell_angle_beta                    91.1836
_cell_angle_gamma                   90.5460

loop_
_atom_site_label
_atom_site_type_symbol
_atom_site_fract_x
_atom_site_fract_y
_atom_site_fract_z
_atom_site_charge
  Ge     Ge        0.052090000000021    0.000000000000000    0.372269999999958  0.0000
  Ge     Ge        0.945888720548171    0.014575269674725    0.623013882384381  0.0000
  Ge     Ge        0.549810998021411    0.974839878605721    0.143488425959093  0.0000
  Ge     Ge        0.949938601805932    0.004686985114067    0.109850404173250  0.0000
  Ge     Ge        0.441657643028663    0.972546842922165    0.886135643414227  0.0000
  Ge     Ge        0.152362743066657    0.311910539444975    0.293000029086305  0.0000
  Ge     Ge        0.352067865158727    0.667961764609576    0.277801989362131  0.0000
  Ge     Ge        0.845155787425172    0.323689942312762    0.720480139332671  0.0000
  Ge     Ge        0.641546781892121    0.666456720690774    0.728199335145021  0.0000
  Ge     Ge        0.822898018095978    0.728365784306619    0.731379492824317  0.0000
  Ge     Ge        0.663564432876025    0.257803960753701    0.721238601304423  0.0000
  Ge     Ge        0.171232521387377    0.720917070183498    0.288194702665466  0.0000
  Ge     Ge        0.332274216299326    0.257510030993268    0.283487833307584  0.0000
  Ge     Ge        0.670534574478392    0.250776876019474    0.031871445370757  0.0000
  Ge     Ge        0.823913972752871    0.724385940046708    0.043139618037332  0.0000
  Ge     Ge        0.323692591369562    0.250002479602552    0.973493973080053  0.0000
  Ge     Ge        0.161810930928491    0.700783373129855    0.978077307705659  0.0000
  Ge     Ge        0.344575228613341    0.654287462933485    0.965513985188785  0.0000
  Ge     Ge        0.642988256870089    0.658484958928980    0.039804493579171  0.0000
  Ge     Ge        0.851114784123874    0.321619727440968    0.032544116153312  0.0000
  Si     Si        0.449156412014082    0.979932570331157    0.387956578493338  0.0000
  Si     Si        0.546267178329744    0.975304868416974    0.640197833537331  0.0000
  Si     Si        0.051835377956479    0.988804430847095    0.869379315781527  0.0000
  Si     Si        0.145132537464345    0.299420081492408    0.989863454948496  0.0000
  O1     O1        0.090374245466168    0.202212737555489    0.385413369174460  0.0000
  O3     O3        0.418968590519844    0.788945921852552    0.360770362952083  0.0000
  O1     O1        0.909748179224148    0.215849012166375    0.630897963699560  0.0000
  O3     O3        0.579062199181145    0.785481088401167    0.636548870468162  0.0000
  O1     O1        0.873072092555051    0.874508812190907    0.647327795277971  0.0000
  O3     O3        0.613140530095723    0.113424666430009    0.625280193872455  0.0000
  O1     O1        0.123621153384549    0.853714139270835    0.388128815608392  0.0000
  O3     O3        0.382100845083185    0.114746742396034    0.375692698253923  0.0000
  O1     O1        0.978690971390964    0.973690642791258    0.472009992649514  0.0000
  O2     O2        0.480814453232158    0.993688325786270    0.533233007946522  0.0000
  O1     O1        0.020800797876149    0.968857614687781    0.216068981331940  0.0000
  O3     O3        0.516797688897720    0.022176978500116    0.293782147853881  0.0000
  O3     O3        0.024653063958866    0.993866799053958    0.722736034538064  0.0000
  O3     O3        0.509491765392127    0.014738089953670    0.776957127903922  0.0000
  O1     O1        0.628034986728924    0.102441462945075    0.124049660461424  0.0000
  O1     O1        0.874511944908111    0.867841696226686    0.133815284105900  0.0000
  O1     O1        0.363965400304113    0.104529121888141    0.875601846161058  0.0000
  O3     O3        0.111151955100548    0.835547319863367    0.880528226814644  0.0000
  O1     O1        0.406387384812807    0.768320126383271    0.874728034433440  0.0000
  O2     O2        0.088005526018181    0.172360688915518    0.912510987677361  0.0000
  O1     O1        0.578070107668003    0.766210826578876    0.128198558586536  0.0000
  O1     O1        0.916297568520371    0.209059537742084    0.119738469648273  0.0000
  O1     O1        0.479965120371836    0.020466521428516    0.034606540925570  0.0000
  O3     O3        0.979599369371697    0.956374336422277    0.955702665450463  0.0000
  O1     O1        0.162542525183919    0.516476554037750    0.346412911539693  0.0000
  O1     O1        0.345951472631454    0.465428081638379    0.336885429667727  0.0000
  O1     O1        0.834324646928765    0.527073290176722    0.665865832551834  0.0000
  O1     O1        0.648539368004350    0.463443911280351    0.668506660565678  0.0000
  O1     O1        0.237923318503472    0.209565428996688    0.294772720076848  0.0000
  O1     O1        0.266036762644010    0.767797615035255    0.283846821383925  0.0000
  O1     O1        0.758627933131382    0.219273389449344    0.714350978800142  0.0000
  O1     O1        0.727706738301366    0.770095086708455    0.728409915489043  0.0000
  O3     O3        0.118061975798882    0.314469282992038    0.135213022197620  0.0000
  O1     O1        0.378928855655427    0.658917575268454    0.121108577282987  0.0000
  O1     O1        0.878773706590203    0.329725062991224    0.875922316752029  0.0000
  O1     O1        0.610527531459191    0.659972492037804    0.882794173671131  0.0000
  O1     O1        0.853564625079454    0.727467845700164    0.887312264286494  0.0000
  O1     O1        0.635520578083380    0.244395028313980    0.876964443925583  0.0000
  O1     O1        0.135426068917979    0.726810218500002    0.133361195047765  0.0000
  O1     O1        0.360007069693804    0.244499347227713    0.127652848908131  0.0000
  O1     O1        0.654460914184314    0.454178067218702    0.091263245567949  0.0000
  O1     O1        0.839705243106700    0.519780821189247    0.097815060177309  0.0000
  O1     O1        0.338811109236882    0.449060711208297    0.910493547095468  0.0000
  O3     O3        0.146978699270996    0.487724730008697    0.930486988801265  0.0000
  O1     O1        0.765553863872861    0.213684702221276    0.029446535046384  0.0000
  O1     O1        0.728965131023803    0.763832263205707    0.046377008168392  0.0000
  O3     O3        0.227517860433287    0.215796784894563    0.988029684475975  0.0000
  O1     O1        0.256175655886269    0.744971678289393    0.965121373752308  0.0000
