data_c01388.vasp
_audit_creation_method             Generated by GULP
_audit_author_name                 Salvador R. G. Balestra
_symmetry_space_group_name_H-M     'P 1             '
_symmetry_Int_Tables_number        1

loop_
_symmetry_equiv_pos_site_id
_symmetry_equiv_pos_as_xyz
_cell_length_a                       17.5814
_cell_length_b                        7.8438
_cell_length_c                       10.1497
_cell_angle_alpha                   90.0808
_cell_angle_beta                    90.8728
_cell_angle_gamma                   91.7586

loop_
_atom_site_label
_atom_site_type_symbol
_atom_site_fract_x
_atom_site_fract_y
_atom_site_fract_z
_atom_site_charge
  Ge     Ge        0.052090000000021    0.000000000000000    0.372269999999958  0.0000
  Ge     Ge        0.548289706513642    0.000985995315118    0.626739014070357  0.0000
  Ge     Ge        0.545844564363200    0.001519567298369    0.135424016699123  0.0000
  Ge     Ge        0.946559044025485    0.060060936661931    0.112321880974430  0.0000
  Ge     Ge        0.439909305023129    0.055262982904484    0.878382221618664  0.0000
  Ge     Ge        0.171829087787724    0.286937421107477    0.284123747141369  0.0000
  Ge     Ge        0.328051711936109    0.761415131850764    0.269431804146036  0.0000
  Ge     Ge        0.854039777207221    0.368163719400587    0.719655493677418  0.0000
  Ge     Ge        0.646982532233049    0.688715327806527    0.699298164660195  0.0000
  Ge     Ge        0.828175049647695    0.769260944911731    0.717193991818065  0.0000
  Ge     Ge        0.671814178746004    0.287657655974809    0.706582214601132  0.0000
  Ge     Ge        0.145224115828220    0.688409130314922    0.286931497404987  0.0000
  Ge     Ge        0.352550103903893    0.359420841038417    0.265957196195299  0.0000
  Ge     Ge        0.668521902922584    0.287626232744025    0.025691547552914  0.0000
  Ge     Ge        0.821390016304628    0.772905086852197    0.038946066850269  0.0000
  Ge     Ge        0.337036459491835    0.361679879040306    0.944313170507891  0.0000
  Ge     Ge        0.136494772260860    0.692918736512977    0.971299113518779  0.0000
  Ge     Ge        0.319817556246919    0.760176725221462    0.951907361333720  0.0000
  Ge     Ge        0.640724676764336    0.690675314930831    0.021661270701571  0.0000
  Ge     Ge        0.849508156310507    0.373623354143508    0.038726300936066  0.0000
  Si     Si        0.443831872711057    0.051890447832807    0.380223787953153  0.0000
  Si     Si        0.945654906373803    0.060301443672631    0.613970946831932  0.0000
  Si     Si        0.045370858633970    0.004967055815147    0.861056016083204  0.0000
  Si     Si        0.159069196442986    0.294801713741341    0.970239439726825  0.0000
  O1     O1        0.125996049252397    0.147319307521414    0.386007672632080  0.0000
  O3     O3        0.372730522422139    0.922017264242262    0.359925520151639  0.0000
  O3     O3        0.919536976285760    0.251644771563501    0.634650371725046  0.0000
  O1     O1        0.582184120857566    0.800265341131284    0.608043711900393  0.0000
  O3     O3        0.876112554737059    0.927025715364069    0.631397404467215  0.0000
  O1     O1        0.622895484251513    0.144441177691179    0.607693655378518  0.0000
  O1     O1        0.087421676063388    0.800540170932121    0.388818751397534  0.0000
  O3     O3        0.422183840574376    0.243811281961592    0.343521658063056  0.0000
  O3     O3        0.974713363652078    0.041550281713665    0.465757882777912  0.0000
  O3     O3        0.469268480390721    0.044972441837792    0.532789572176422  0.0000
  O1     O1        0.021986524811460    0.019901252021436    0.210067509220534  0.0000
  O3     O3        0.516582211306907    0.996550147585344    0.297962825229150  0.0000
  O2     O2        0.018285127809496    0.018425024387721    0.708180286831565  0.0000
  O1     O1        0.517647545789082    0.020456269632613    0.787336690993186  0.0000
  O1     O1        0.623154734155048    0.138230798019810    0.120949691002819  0.0000
  O1     O1        0.871160784295503    0.917335414851374    0.134065951791555  0.0000
  O1     O1        0.396058234589693    0.246039181494579    0.850497306782307  0.0000
  O3     O3        0.074342240080157    0.814359612595916    0.880298329589085  0.0000
  O1     O1        0.368847993917682    0.901496384894540    0.856114374511229  0.0000
  O2     O2        0.112029054498781    0.147279322425892    0.890551190955174  0.0000
  O1     O1        0.570708757093790    0.796717988156995    0.098838635022910  0.0000
  O1     O1        0.913196173018255    0.261960017093996    0.131281116569812  0.0000
  O1     O1        0.470612720917986    0.063439683647556    0.040827027071088  0.0000
  O3     O3        0.973021653596595    0.039306615125870    0.948374601022936  0.0000
  O1     O1        0.158044451420900    0.488661042482025    0.345486602752893  0.0000
  O1     O1        0.346575478535587    0.561456747075203    0.330622355170336  0.0000
  O1     O1        0.845351663576589    0.569050239510946    0.654951870445103  0.0000
  O1     O1        0.658627205400666    0.487958711484180    0.640802183369800  0.0000
  O1     O1        0.266854989149403    0.250121851643516    0.282219327537149  0.0000
  O1     O1        0.232296822802444    0.793407050100916    0.273552983054357  0.0000
  O1     O1        0.767832129310343    0.257711736928684    0.712771034401590  0.0000
  O1     O1        0.732409809576804    0.802575084176674    0.702599995751764  0.0000
  O3     O3        0.136128881751382    0.285895090719301    0.123001168446939  0.0000
  O1     O1        0.358006497357577    0.772947637191397    0.109465856935623  0.0000
  O1     O1        0.882548045361716    0.393109951494971    0.880259020397338  0.0000
  O1     O1        0.615805179767830    0.669536700833223    0.858375289742969  0.0000
  O1     O1        0.854060520768455    0.776305558561760    0.879854485470473  0.0000
  O1     O1        0.637113633374410    0.272503605063952    0.864329166548553  0.0000
  O1     O1        0.105782109558301    0.684032370968580    0.130041264316155  0.0000
  O1     O1        0.372557235881293    0.383054905600841    0.102803642758171  0.0000
  O1     O1        0.651699004457384    0.489795008878825    0.083938510647098  0.0000
  O1     O1        0.835341626581035    0.570994405530661    0.102024073472498  0.0000
  O1     O1        0.329409237329303    0.561613073767133    0.882492931457627  0.0000
  O3     O3        0.141750287612598    0.483248177170239    0.915237393627475  0.0000
  O1     O1        0.764611641128131    0.257627760412246    0.029335528084470  0.0000
  O1     O1        0.725501006557608    0.806709454405880    0.036012155828659  0.0000
  O3     O3        0.247909289553057    0.260184466486612    0.956630961363554  0.0000
  O1     O1        0.224193636469744    0.792462297189713    0.962853102111031  0.0000
