data_c01323.vasp
_audit_creation_method             Generated by GULP
_audit_author_name                 Salvador R. G. Balestra
_symmetry_space_group_name_H-M     'P 1             '
_symmetry_Int_Tables_number        1

loop_
_symmetry_equiv_pos_site_id
_symmetry_equiv_pos_as_xyz
_cell_length_a                       17.5854
_cell_length_b                        7.8301
_cell_length_c                       10.0802
_cell_angle_alpha                   89.9755
_cell_angle_beta                    90.1643
_cell_angle_gamma                   91.4771

loop_
_atom_site_label
_atom_site_type_symbol
_atom_site_fract_x
_atom_site_fract_y
_atom_site_fract_z
_atom_site_charge
  Ge     Ge        0.052090000000021    0.000000000000000    0.372269999999958  0.0000
  Ge     Ge        0.939275087872145    0.040271111531908    0.617106811632383  0.0000
  Ge     Ge        0.545257896680057    0.004072983437358    0.118726880002550  0.0000
  Ge     Ge        0.940804302350640    0.059082291456294    0.126202208649121  0.0000
  Ge     Ge        0.445620967709393    0.065921180240322    0.854494532739948  0.0000
  Ge     Ge        0.044695994247907    0.997820752129340    0.872347731813517  0.0000
  Ge     Ge        0.169070367262091    0.299178434055937    0.261276124308722  0.0000
  Ge     Ge        0.326621683069406    0.769809188792981    0.258383250854759  0.0000
  Ge     Ge        0.845127987541699    0.360568988017774    0.685689246325344  0.0000
  Ge     Ge        0.640798721988229    0.687551881479793    0.677243482439589  0.0000
  Ge     Ge        0.661934190162228    0.287460837006857    0.686284260970742  0.0000
  Ge     Ge        0.352479931115260    0.367906741919791    0.256546176330956  0.0000
  Ge     Ge        0.666494213551947    0.288362101175796    0.007189618368664  0.0000
  Ge     Ge        0.818162705270028    0.772626560389762    0.999131437153700  0.0000
  Ge     Ge        0.348082244749205    0.372318400674900    0.934196460641432  0.0000
  Ge     Ge        0.145953707651824    0.688932403417885    0.937542680732637  0.0000
  Ge     Ge        0.323839957280885    0.777439358421801    0.936688620816392  0.0000
  Ge     Ge        0.168815448987603    0.284596681477308    0.941771365579483  0.0000
  Ge     Ge        0.637932388894659    0.690775509371396    0.000181645817426  0.0000
  Ge     Ge        0.848592169574107    0.369133422618391    0.004559090297936  0.0000
  Si     Si        0.441264220810691    0.054875519473932    0.369312470636045  0.0000
  Si     Si        0.548031240489018    0.000716533353047    0.606192100709431  0.0000
  Si     Si        0.819224593246869    0.755093610680026    0.682911734980549  0.0000
  Si     Si        0.148058250918710    0.694125130117030    0.254121166984664  0.0000
  O1     O1        0.120393009019794    0.158833655892892    0.361648107546768  0.0000
  O3     O3        0.367928519149299    0.930809310808130    0.352887755563128  0.0000
  O1     O1        0.903507750740252    0.239631806554283    0.589279020385857  0.0000
  O3     O3        0.579998160140253    0.813013331567189    0.585168227443591  0.0000
  O3     O3        0.866471110441623    0.888642948840209    0.593605580656874  0.0000
  O3     O3        0.615307336946320    0.139834631829476    0.584867134059816  0.0000
  O3     O3        0.087037897622959    0.802218588629142    0.333429372238800  0.0000
  O3     O3        0.418216941554974    0.248374869764279    0.342137593378870  0.0000
  O1     O1        0.020364501101342    0.994900581352560    0.534405456761324  0.0000
  O2     O2        0.472724137080692    0.038432655362757    0.520520233372765  0.0000
  O1     O1        0.969355895717118    0.041625819882892    0.288638248990712  0.0000
  O3     O3        0.510842666463499    0.998132159451206    0.279018716627076  0.0000
  O1     O1        0.965661878560380    0.036757739203962    0.782863895794925  0.0000
  O3     O3        0.522902329206134    0.019874003894693    0.759749006762056  0.0000
  O1     O1        0.623441955812946    0.138835083308990    0.107073711904971  0.0000
  O1     O1        0.864309850023912    0.925924407042775    0.089630848487239  0.0000
  O1     O1        0.408845812088144    0.265273057838817    0.833112786523632  0.0000
  O1     O1        0.078530234252710    0.794964757766022    0.850885158681052  0.0000
  O1     O1        0.374284422296347    0.913450993053084    0.836783604503928  0.0000
  O1     O1        0.117732255078825    0.144788797846267    0.845246079920829  0.0000
  O1     O1        0.569443039229400    0.798070326507159    0.082419293925856  0.0000
  O1     O1        0.913711707708182    0.265818727840833    0.099191327444968  0.0000
  O1     O1        0.474114194676756    0.070619049457531    0.018113296458361  0.0000
  O1     O1        0.019436881814341    0.008163975189465    0.037419126259113  0.0000
  O3     O3        0.156956051740944    0.507238857361004    0.317406821611735  0.0000
  O1     O1        0.347185191497833    0.571775086808892    0.319785795129189  0.0000
  O3     O3        0.832781720368849    0.565111088859210    0.626552317294190  0.0000
  O1     O1        0.645490574044253    0.485394583882113    0.616885278089298  0.0000
  O1     O1        0.265072895335470    0.265770036094156    0.264313195985761  0.0000
  O3     O3        0.229069135641133    0.795719640461602    0.257600636452632  0.0000
  O1     O1        0.757628323642831    0.256480528651094    0.689669755523597  0.0000
  O3     O3        0.729698152501310    0.789818674248193    0.678782220927808  0.0000
  O1     O1        0.135831047562271    0.270642265859828    0.102778973470335  0.0000
  O1     O1        0.357436050342862    0.791298135592218    0.097692342954194  0.0000
  O1     O1        0.880965807589564    0.373577758032275    0.843534446319517  0.0000
  O1     O1        0.609934926797794    0.668679961269657    0.837249745492032  0.0000
  O3     O3        0.847934990141835    0.769308602646355    0.834851632463817  0.0000
  O1     O1        0.630560078431479    0.275047726405471    0.847717894107354  0.0000
  O3     O3        0.120997983947102    0.665893649168730    0.103598139606742  0.0000
  O1     O1        0.380770511729495    0.391482676806709    0.095234941467496  0.0000
  O1     O1        0.650278618200851    0.491636750198645    0.065306436865015  0.0000
  O1     O1        0.836551738599657    0.572781273345273    0.061396119370330  0.0000
  O1     O1        0.333377809606710    0.572407452204596    0.876266987720757  0.0000
  O1     O1        0.157275168300069    0.488211344858702    0.878650532349070  0.0000
  O1     O1        0.762490892056303    0.258991617022060    0.004810865472662  0.0000
  O1     O1        0.722545219054908    0.806497804302694    0.004993461344328  0.0000
  O1     O1        0.264542790408344    0.250967800299998    0.942757587110490  0.0000
  O1     O1        0.228252520439741    0.813424092983422    0.933820626149656  0.0000
