data_c01317.vasp
_audit_creation_method             Generated by GULP
_audit_author_name                 Salvador R. G. Balestra
_symmetry_space_group_name_H-M     'P 1             '
_symmetry_Int_Tables_number        1

loop_
_symmetry_equiv_pos_site_id
_symmetry_equiv_pos_as_xyz
_cell_length_a                       17.6059
_cell_length_b                        7.8061
_cell_length_c                       10.1760
_cell_angle_alpha                   90.7528
_cell_angle_beta                    90.4653
_cell_angle_gamma                   91.0541

loop_
_atom_site_label
_atom_site_type_symbol
_atom_site_fract_x
_atom_site_fract_y
_atom_site_fract_z
_atom_site_charge
  Ge     Ge        0.052090000000021    0.000000000000000    0.372269999999958  0.0000
  Ge     Ge        0.941363923710619    0.038587610515601    0.616816163581943  0.0000
  Ge     Ge        0.544843029471092    0.984790620710308    0.092670191008273  0.0000
  Ge     Ge        0.939612883607649    0.044968717035459    0.127875235323805  0.0000
  Ge     Ge        0.440323460935486    0.036109670642982    0.832731063001193  0.0000
  Ge     Ge        0.043555101434811    0.976409701282529    0.875409787419411  0.0000
  Ge     Ge        0.167750303772260    0.295422523784475    0.266585630915461  0.0000
  Ge     Ge        0.326282439541592    0.766416966519652    0.254676238702061  0.0000
  Ge     Ge        0.842373935118130    0.355351279289367    0.683022651156800  0.0000
  Ge     Ge        0.633864344260194    0.684064456454156    0.696454553002531  0.0000
  Ge     Ge        0.816042945569591    0.758643976763831    0.689722747695776  0.0000
  Ge     Ge        0.660754379941652    0.278668341641414    0.689846988572968  0.0000
  Ge     Ge        0.349052121444093    0.362309595930600    0.266840189208198  0.0000
  Ge     Ge        0.667002390157550    0.267692004654248    0.008663927885608  0.0000
  Ge     Ge        0.818104042316783    0.760021708983397    0.007777571367565  0.0000
  Ge     Ge        0.144648700403436    0.665537457449538    0.934409028996725  0.0000
  Ge     Ge        0.323773729214400    0.742720882969891    0.936664548886343  0.0000
  Ge     Ge        0.167885107529802    0.263581871456287    0.950340130235889  0.0000
  Ge     Ge        0.639277269385609    0.671273901315223    0.014430077933291  0.0000
  Ge     Ge        0.846266477605765    0.354136976356609    0.003043387185709  0.0000
  Si     Si        0.441189870561857    0.050790892071054    0.340008765894673  0.0000
  Si     Si        0.542898442236717    0.996423747443221    0.584064807091799  0.0000
  Si     Si        0.148529028925805    0.692172809792861    0.249255011097471  0.0000
  Si     Si        0.344955129366031    0.342465816317347    0.955301636886080  0.0000
  O1     O1        0.118568025183194    0.162119651128828    0.368293376230221  0.0000
  O3     O3        0.370151321432932    0.919891688583245    0.354150749565551  0.0000
  O1     O1        0.906814030592664    0.240466071199183    0.593652141526299  0.0000
  O3     O3        0.566613528410741    0.803433950249041    0.614686224736112  0.0000
  O1     O1        0.866074800822356    0.897541841744655    0.593725106520479  0.0000
  O3     O3        0.615128222775177    0.122863258977063    0.594828375212932  0.0000
  O3     O3        0.087200545784080    0.803650615042200    0.325392278793594  0.0000
  O3     O3        0.413566516295274    0.244200317012720    0.356643189354406  0.0000
  O1     O1        0.021040978280056    0.988109862718128    0.532470094853507  0.0000
  O2     O2        0.511375648036956    0.004547410601627    0.433847035014146  0.0000
  O1     O1        0.970156094791162    0.045518719803351    0.288638449390409  0.0000
  O3     O3        0.469128782788372    0.027959334578543    0.190220692261796  0.0000
  O1     O1        0.968194047501595    0.027284321491796    0.781388148143181  0.0000
  O3     O3        0.474385916173270    0.057551502415348    0.674879962759634  0.0000
  O1     O1        0.618858615026831    0.130480497174790    0.108457817417360  0.0000
  O1     O1        0.863302478154926    0.907155767696329    0.107594403802047  0.0000
  O3     O3        0.404658603676208    0.234954968172874    0.873499828270793  0.0000
  O1     O1        0.076386860537310    0.771702885409952    0.850192489398688  0.0000
  O1     O1        0.372620435070212    0.875118425787345    0.834264546328601  0.0000
  O1     O1        0.121134018573481    0.113329002228128    0.857407404597975  0.0000
  O1     O1        0.578174517801660    0.781568982164789    0.113017698804718  0.0000
  O1     O1        0.914481360453718    0.250279647122078    0.089336147026366  0.0000
  O1     O1        0.515282854939169    0.990381767121365    0.930978897866333  0.0000
  O1     O1        0.015900919765149    0.983341212506727    0.037312545768787  0.0000
  O3     O3        0.157911102229997    0.508226460449070    0.316148719266661  0.0000
  O1     O1        0.345695645182196    0.569545126591953    0.320741358143265  0.0000
  O1     O1        0.829548138112943    0.556034542462798    0.624485085984831  0.0000
  O1     O1        0.643223613696801    0.480843167050251    0.631640747241136  0.0000
  O1     O1        0.263113606514087    0.257580291138536    0.276180461546625  0.0000
  O3     O3        0.228971270020415    0.795384630818552    0.252081849185825  0.0000
  O1     O1        0.756565315727374    0.244839928698061    0.684268727509933  0.0000
  O1     O1        0.719961608909459    0.792063717311597    0.691399402537468  0.0000
  O1     O1        0.135047794860951    0.256122476565444    0.109611928389683  0.0000
  O1     O1        0.356427201425397    0.778765004296750    0.094784346402478  0.0000
  O1     O1        0.873988455820921    0.375687780076733    0.842908938725462  0.0000
  O1     O1        0.605455666765866    0.655104344879143    0.854988097282384  0.0000
  O1     O1        0.850432640882762    0.774463815821155    0.848899387891471  0.0000
  O1     O1        0.631863381493641    0.259369761198043    0.849971490157091  0.0000
  O3     O3        0.122590006810567    0.653867318379321    0.100640821512211  0.0000
  O3     O3        0.375457160317304    0.372759365325076    0.103292356899672  0.0000
  O1     O1        0.655040415305243    0.472230721037361    0.072209851654437  0.0000
  O1     O1        0.832856335909771    0.555983677857318    0.065397738486171  0.0000
  O3     O3        0.332910601369265    0.527565020411389    0.892532479049150  0.0000
  O1     O1        0.150789724224921    0.459422992046076    0.880514464421452  0.0000
  O1     O1        0.762836823514474    0.233668873574649    0.006053326457013  0.0000
  O1     O1        0.722238723156047    0.791994456599621    0.005667065563886  0.0000
  O3     O3        0.265296101402098    0.236356842412484    0.958741613393525  0.0000
  O1     O1        0.228681600456245    0.780198999319438    0.924472857974358  0.0000
