data_c01380.vasp
_audit_creation_method             Generated by GULP
_audit_author_name                 Salvador R. G. Balestra
_symmetry_space_group_name_H-M     'P 1             '
_symmetry_Int_Tables_number        1

loop_
_symmetry_equiv_pos_site_id
_symmetry_equiv_pos_as_xyz
_cell_length_a                       17.6582
_cell_length_b                        7.8193
_cell_length_c                        9.9748
_cell_angle_alpha                   88.6961
_cell_angle_beta                    90.2978
_cell_angle_gamma                   90.9338

loop_
_atom_site_label
_atom_site_type_symbol
_atom_site_fract_x
_atom_site_fract_y
_atom_site_fract_z
_atom_site_charge
  Ge     Ge        0.052090000000021    0.000000000000000    0.372269999999958  0.0000
  Ge     Ge        0.553424986509965    0.020860722777934    0.639040917382570  0.0000
  Ge     Ge        0.547728608026611    0.015377952796817    0.151917552156276  0.0000
  Ge     Ge        0.946002719148591    0.071259812212864    0.117065397415286  0.0000
  Ge     Ge        0.445444191471134    0.075317785578817    0.891362393314341  0.0000
  Ge     Ge        0.045927845333787    0.018430487087772    0.855056613654075  0.0000
  Ge     Ge        0.172980178151891    0.285900898317702    0.292114733143950  0.0000
  Ge     Ge        0.331187607306540    0.752663472158339    0.293115385782810  0.0000
  Ge     Ge        0.852868418168053    0.381446123286464    0.719617088112670  0.0000
  Ge     Ge        0.827430762595476    0.782484101313236    0.716647448082583  0.0000
  Ge     Ge        0.670979607090042    0.312575447931613    0.712971231760777  0.0000
  Ge     Ge        0.149280992604441    0.684910820702363    0.307148576884053  0.0000
  Ge     Ge        0.669412276716963    0.301126420492976    0.036852034841123  0.0000
  Ge     Ge        0.822191592025742    0.788391908381900    0.041623263864101  0.0000
  Ge     Ge        0.346131455203303    0.382642280670810    0.958692591990394  0.0000
  Ge     Ge        0.143509526696650    0.706029855644934    0.979370172054558  0.0000
  Ge     Ge        0.322652635377065    0.786792076497342    0.969101419580578  0.0000
  Ge     Ge        0.168457103210675    0.299505492471290    0.967195610622249  0.0000
  Ge     Ge        0.643670800013355    0.708628367354290    0.029288125530802  0.0000
  Ge     Ge        0.848315123766251    0.385280562337198    0.045903861649712  0.0000
  Si     Si        0.442161583467691    0.046435887892109    0.398830687840705  0.0000
  Si     Si        0.941373456698089    0.070366409501680    0.603934775132570  0.0000
  Si     Si        0.650097554362079    0.708280529690100    0.710390607149581  0.0000
  Si     Si        0.350840907800370    0.357006913198215    0.276986348804630  0.0000
  O1     O1        0.128498963663990    0.136114439449350    0.391910473269209  0.0000
  O3     O3        0.380406311468145    0.895070350109502    0.391788324989030  0.0000
  O3     O3        0.919224019472516    0.263236566870566    0.636038479145971  0.0000
  O3     O3        0.592930857327344    0.821295438885952    0.620875666479393  0.0000
  O3     O3        0.869201581495315    0.945741457558200    0.623194086012185  0.0000
  O1     O1        0.620969923782907    0.177541042681546    0.611427041272219  0.0000
  O1     O1        0.085531913772236    0.798096437888256    0.398943205360970  0.0000
  O2     O2        0.409886347018674    0.230813308365243    0.351645195019229  0.0000
  O3     O3        0.970127687096348    0.057168689923474    0.451542897583342  0.0000
  O3     O3        0.470347085546277    0.055641010825824    0.551945791034139  0.0000
  O1     O1        0.024568376822285    0.018972550811180    0.205452058744968  0.0000
  O3     O3        0.517885934124201    0.005171123998852    0.317540879487309  0.0000
  O3     O3        0.014060779230261    0.010629626463899    0.690127112477009  0.0000
  O1     O1        0.524170890226432    0.031902537977115    0.803518737433472  0.0000
  O1     O1        0.623451431940771    0.154527923905340    0.137845081030938  0.0000
  O1     O1        0.872723883728219    0.925013296277553    0.139060286257637  0.0000
  O1     O1        0.410301332379694    0.277922913556447    0.864867011502873  0.0000
  O1     O1        0.074305615739400    0.814598450225638    0.895627918115440  0.0000
  O1     O1        0.372466291078195    0.929027252499126    0.871186034692473  0.0000
  O1     O1        0.120483780698311    0.160597091583618    0.866724696294335  0.0000
  O1     O1        0.573808408927476    0.812081940210333    0.109137258391654  0.0000
  O1     O1        0.911395983813173    0.272555751918104    0.142474669693545  0.0000
  O1     O1        0.471880648190241    0.075801360642403    0.058295305485741  0.0000
  O1     O1        0.971201492486290    0.076566229251308    0.949405356867726  0.0000
  O1     O1        0.156636304392049    0.479441298942537    0.364701897272742  0.0000
  O3     O3        0.345949208934214    0.540926939857582    0.346037556418031  0.0000
  O1     O1        0.847658388460272    0.586372711993900    0.652759003348415  0.0000
  O3     O3        0.660063183268773    0.521602122920425    0.651837966949860  0.0000
  O3     O3        0.269717466668373    0.259921039776937    0.280812801613133  0.0000
  O1     O1        0.236203989730600    0.788356564567922    0.307919820845778  0.0000
  O1     O1        0.766492887906060    0.277322007489828    0.711076339532520  0.0000
  O3     O3        0.730399376092493    0.809537346420781    0.715530294259033  0.0000
  O1     O1        0.137996914509587    0.276220700083562    0.130854565492394  0.0000
  O1     O1        0.358426125132973    0.788676858017203    0.130662394206658  0.0000
  O1     O1        0.879520092303037    0.408555764494386    0.882542248705742  0.0000
  O3     O3        0.619704669835433    0.685770394648470    0.861587448682378  0.0000
  O1     O1        0.856722549064236    0.798831707715336    0.879797802149555  0.0000
  O1     O1        0.637723692280243    0.284629671895734    0.873702527965711  0.0000
  O1     O1        0.118149532563108    0.675786701904963    0.143954458469322  0.0000
  O3     O3        0.375448239664224    0.397490708788030    0.125611271022370  0.0000
  O1     O1        0.654786847410863    0.505382295883210    0.092489338450677  0.0000
  O1     O1        0.833824419558389    0.583314722295121    0.106542699890348  0.0000
  O1     O1        0.333030162063944    0.586333511150982    0.902145637531476  0.0000
  O1     O1        0.155137957303169    0.508168357437143    0.913122473297920  0.0000
  O1     O1        0.764968970936196    0.267362498665343    0.038420309230470  0.0000
  O1     O1        0.726810434279836    0.826210736252929    0.041131537710326  0.0000
  O1     O1        0.263591191710770    0.262641407865860    0.959166158976335  0.0000
  O1     O1        0.227235294650414    0.823771532273830    0.973881749174270  0.0000
