data_c01361.vasp
_audit_creation_method             Generated by GULP
_audit_author_name                 Salvador R. G. Balestra
_symmetry_space_group_name_H-M     'P 1             '
_symmetry_Int_Tables_number        1

loop_
_symmetry_equiv_pos_site_id
_symmetry_equiv_pos_as_xyz
_cell_length_a                       17.8008
_cell_length_b                        7.8734
_cell_length_c                       10.2114
_cell_angle_alpha                   89.7887
_cell_angle_beta                    90.5740
_cell_angle_gamma                   89.4415

loop_
_atom_site_label
_atom_site_type_symbol
_atom_site_fract_x
_atom_site_fract_y
_atom_site_fract_z
_atom_site_charge
  Ge     Ge        0.052090000000021    0.000000000000000    0.372269999999958  0.0000
  Ge     Ge        0.547501631942695    0.996375424611522    0.629500172760492  0.0000
  Ge     Ge        0.552457632474225    0.992788642933841    0.143169729646499  0.0000
  Ge     Ge        0.942835637504865    0.010598003565912    0.116769171478199  0.0000
  Ge     Ge        0.444785381914906    0.993560757797157    0.889791161748533  0.0000
  Ge     Ge        0.045924827902311    0.013506273413057    0.861256939651457  0.0000
  Ge     Ge        0.157682047729713    0.305922018725142    0.293374914911467  0.0000
  Ge     Ge        0.350717011730263    0.671241414597245    0.283031545765838  0.0000
  Ge     Ge        0.847072630777247    0.324124514444356    0.721799688902187  0.0000
  Ge     Ge        0.649433330542978    0.683715484890114    0.709690242661733  0.0000
  Ge     Ge        0.828860892252282    0.730611889504433    0.719843485717348  0.0000
  Ge     Ge        0.666266526191779    0.275128873538261    0.713180950686965  0.0000
  Ge     Ge        0.168021375989274    0.709779695688136    0.298260454295017  0.0000
  Ge     Ge        0.664887966296294    0.282616800928416    0.029201185360232  0.0000
  Ge     Ge        0.823561123715847    0.731781257466869    0.038887948736844  0.0000
  Ge     Ge        0.322876506137987    0.279535785582794    0.955754112780269  0.0000
  Ge     Ge        0.165629674275012    0.729700036514032    0.981961442014722  0.0000
  Ge     Ge        0.346815402826090    0.678417196557624    0.968616232353410  0.0000
  Ge     Ge        0.144356667172653    0.321782801629433    0.971541761620312  0.0000
  Ge     Ge        0.845310876061499    0.330337159211587    0.040374667500428  0.0000
  Si     Si        0.444981572973028    0.983551838742643    0.383038770157872  0.0000
  Si     Si        0.943060614933795    0.014684108357720    0.611083458438368  0.0000
  Si     Si        0.334404208748712    0.276423818155275    0.271702226119597  0.0000
  Si     Si        0.647442333064807    0.685174105402172    0.021629398858685  0.0000
  O1     O1        0.101397848997250    0.184472584707812    0.389159278164523  0.0000
  O3     O3        0.408493515053384    0.798696934472499    0.377180028645287  0.0000
  O3     O3        0.910653041959938    0.202597925925040    0.635664016312032  0.0000
  O1     O1        0.586851439327274    0.797513080134081    0.615914309040226  0.0000
  O3     O3        0.879334561912281    0.875659733209619    0.631503680811537  0.0000
  O1     O1        0.616501036574268    0.145240481360146    0.611048883258446  0.0000
  O1     O1        0.115832690615913    0.838520596378168    0.397937514984270  0.0000
  O2     O2        0.387347009043296    0.129150126427326    0.332662280240191  0.0000
  O3     O3        0.971203766994847    0.998660049576861    0.462726073844688  0.0000
  O3     O3        0.468776019360782    0.022154723201755    0.531935108093984  0.0000
  O1     O1        0.019401626117755    0.979041288333754    0.213446422976371  0.0000
  O3     O3        0.522638037853477    0.986718764130374    0.303803182400210  0.0000
  O3     O3        0.016582099159018    0.983083311555611    0.700979814230934  0.0000
  O1     O1        0.517989891073574    0.021970459942497    0.788360803827147  0.0000
  O1     O1        0.617176931903233    0.151875638388980    0.132093987515068  0.0000
  O1     O1        0.869334256800668    0.871173814451435    0.137144731020846  0.0000
  O1     O1        0.373730456504711    0.141735559736897    0.865616674898841  0.0000
  O1     O1        0.120374874839670    0.878155674687251    0.887927552086611  0.0000
  O1     O1        0.405648329176277    0.796484247638749    0.873930454455824  0.0000
  O1     O1        0.075830147217829    0.218138646681979    0.886698077537570  0.0000
  O3     O3        0.588971694028648    0.794620136805548    0.104046342712926  0.0000
  O1     O1        0.906983468769586    0.212535556230954    0.133586702884475  0.0000
  O1     O1        0.475582664529174    0.031892576313959    0.047204930147459  0.0000
  O1     O1        0.970917831491622    0.972545992882186    0.958080284395704  0.0000
  O1     O1        0.158967586254814    0.506006788808614    0.355135346922894  0.0000
  O3     O3        0.349274454059117    0.460252223328657    0.336589946424874  0.0000
  O1     O1        0.841559264706944    0.527170191612749    0.660712082022507  0.0000
  O1     O1        0.656527495313682    0.480303702279275    0.655858326628143  0.0000
  O3     O3        0.248547578570025    0.222459332141588    0.291353543009199  0.0000
  O1     O1        0.261877792982126    0.755004014735639    0.295545809784910  0.0000
  O1     O1        0.760652118197480    0.228768807216184    0.715524808084804  0.0000
  O1     O1        0.735278941318142    0.781522683992264    0.705765037392605  0.0000
  O1     O1        0.123245859242414    0.309170469475640    0.135731439122316  0.0000
  O1     O1        0.383151745335690    0.678785754673090    0.126353552248128  0.0000
  O1     O1        0.877236173842887    0.333708776443996    0.881426168000770  0.0000
  O3     O3        0.619457811072890    0.679664239316377    0.871412706114364  0.0000
  O1     O1        0.856175876169654    0.733485570924502    0.880757705977723  0.0000
  O1     O1        0.633456397823937    0.258981378676626    0.871106303325349  0.0000
  O1     O1        0.133986907095090    0.729884392122784    0.140451765218270  0.0000
  O3     O3        0.350366234796236    0.298252439155259    0.118830418722587  0.0000
  O3     O3        0.654688192847060    0.494216212890761    0.076172600364192  0.0000
  O1     O1        0.838426506952294    0.530853570977456    0.101481850818128  0.0000
  O1     O1        0.336539587537817    0.483590049300098    0.899278295547713  0.0000
  O1     O1        0.150238709894249    0.528618110302097    0.921412539990806  0.0000
  O1     O1        0.758765861082138    0.234725065659005    0.036298717931057  0.0000
  O3     O3        0.728192372693387    0.775911940709680    0.029397256232619  0.0000
  O1     O1        0.230371925564048    0.225432933847138    0.948236043336791  0.0000
  O1     O1        0.259590529260421    0.772848366263680    0.982826555002114  0.0000
