data_c01396.vasp
_audit_creation_method             Generated by GULP
_audit_author_name                 Salvador R. G. Balestra
_symmetry_space_group_name_H-M     'P 1             '
_symmetry_Int_Tables_number        1

loop_
_symmetry_equiv_pos_site_id
_symmetry_equiv_pos_as_xyz
_cell_length_a                       17.6889
_cell_length_b                        7.8625
_cell_length_c                       10.3382
_cell_angle_alpha                   90.1970
_cell_angle_beta                    89.4688
_cell_angle_gamma                   90.3406

loop_
_atom_site_label
_atom_site_type_symbol
_atom_site_fract_x
_atom_site_fract_y
_atom_site_fract_z
_atom_site_charge
  Ge     Ge        0.052090000000021    0.000000000000000    0.372269999999958  0.0000
  Ge     Ge        0.552040104289065    0.973562563112001    0.610172414909400  0.0000
  Ge     Ge        0.550914753974044    0.969252195211697    0.113658636678917  0.0000
  Ge     Ge        0.944301125900760    0.003476261557795    0.125435966112654  0.0000
  Ge     Ge        0.055458667906375    0.993051908905066    0.875502984409525  0.0000
  Ge     Ge        0.153735189385575    0.308238376719248    0.256221256958371  0.0000
  Ge     Ge        0.353281197949473    0.664787441574587    0.254386330710551  0.0000
  Ge     Ge        0.855012857347811    0.314867737650957    0.693908941517960  0.0000
  Ge     Ge        0.654085284837549    0.662697117860230    0.688232566488943  0.0000
  Ge     Ge        0.835891865335907    0.719626416759961    0.694714183475040  0.0000
  Ge     Ge        0.673473925044276    0.257347652182540    0.687329585018293  0.0000
  Ge     Ge        0.171861488839370    0.716766338820758    0.254521958205386  0.0000
  Ge     Ge        0.333970478973679    0.258624421841735    0.256379625316358  0.0000
  Ge     Ge        0.671975492913430    0.250253884346305    0.000893875804833  0.0000
  Ge     Ge        0.826287118975081    0.721541421716391    0.008226019198928  0.0000
  Ge     Ge        0.336109835261085    0.261261234884873    0.941307872244628  0.0000
  Ge     Ge        0.171243193498815    0.703055962231121    0.941965310991209  0.0000
  Ge     Ge        0.354226872974408    0.663904183957644    0.939629894437402  0.0000
  Ge     Ge        0.645549024727947    0.654862707634392    0.002589146983580  0.0000
  Ge     Ge        0.852751998784488    0.318641415485437    0.008415068802564  0.0000
  Si     Si        0.447730130488921    0.974651033513082    0.363781620060867  0.0000
  Si     Si        0.952941472067109    0.005190321194699    0.625276474838725  0.0000
  Si     Si        0.449298204680566    0.979132027502840    0.864089675266751  0.0000
  Si     Si        0.157440292910945    0.303516465208926    0.947595535403946  0.0000
  O1     O1        0.086221113069780    0.200702452820043    0.341255585127834  0.0000
  O3     O3        0.416777489534892    0.784534727649987    0.342065425693919  0.0000
  O3     O3        0.916770071454469    0.190081127525442    0.604178290676486  0.0000
  O1     O1        0.592863290721147    0.778027301407514    0.595947732246164  0.0000
  O3     O3        0.889074258196005    0.861121821393480    0.603786907461294  0.0000
  O1     O1        0.622185902701320    0.123291295980434    0.590896618319862  0.0000
  O1     O1        0.122846746110450    0.855379753893744    0.350200387451748  0.0000
  O3     O3        0.381878070682000    0.110592605685390    0.344915399145068  0.0000
  O3     O3        0.024746662979379    0.981483237791754    0.533213893831168  0.0000
  O3     O3        0.476697844807345    0.995640184580466    0.509261842018921  0.0000
  O1     O1        0.973530795422742    0.968246541795295    0.280692957714612  0.0000
  O3     O3        0.518567352093173    0.007668977675892    0.268789673299799  0.0000
  O3     O3        0.979739107571486    0.989043531749402    0.773658151506532  0.0000
  O3     O3        0.518011745133811    0.005368772197395    0.766737444039855  0.0000
  O1     O1        0.626835532821606    0.102182340900662    0.093549690461634  0.0000
  O1     O1        0.868430562912098    0.871092002260251    0.102412449765027  0.0000
  O3     O3        0.382057615520417    0.114830032958064    0.845351154917761  0.0000
  O1     O1        0.119308467568007    0.832649309463456    0.845500777404916  0.0000
  O3     O3        0.415223373370062    0.789866146102936    0.849394830539632  0.0000
  O3     O3        0.101468464557571    0.188222771888981    0.863965165363031  0.0000
  O1     O1        0.580066395443987    0.763395746675709    0.092944186433522  0.0000
  O1     O1        0.916268900796555    0.209526924602788    0.099441390859497  0.0000
  O3     O3        0.478216972151048    0.013642231347963    0.009505350777000  0.0000
  O1     O1        0.020384284546997    0.957663246346870    0.027911298942229  0.0000
  O1     O1        0.160915440347729    0.512259443074870    0.311351705264873  0.0000
  O1     O1        0.346551607199813    0.462785004510526    0.314991167644827  0.0000
  O1     O1        0.849092182250701    0.516807362160189    0.633915417397768  0.0000
  O1     O1        0.664384801612960    0.461359288253111    0.629293409786380  0.0000
  O1     O1        0.239654971768932    0.208846652160716    0.266466399171919  0.0000
  O1     O1        0.266779957594242    0.762361323701834    0.255781426368851  0.0000
  O1     O1        0.768374323069232    0.214074237956336    0.689368266516336  0.0000
  O1     O1        0.741043868569354    0.763954061986957    0.689120118032547  0.0000
  O3     O3        0.127175124413917    0.311552010227128    0.094895614989215  0.0000
  O1     O1        0.384886722131042    0.657607402798965    0.096795285795618  0.0000
  O1     O1        0.884938332627895    0.329668255936722    0.851009613377999  0.0000
  O1     O1        0.618371581349877    0.651753867861016    0.843262275834038  0.0000
  O1     O1        0.862946119168226    0.726596066739795    0.853638643132938  0.0000
  O1     O1        0.640847886264919    0.243546741613179    0.844195193298169  0.0000
  O1     O1        0.139799713155626    0.726828826399647    0.098772623593699  0.0000
  O1     O1        0.365179963545560    0.258672625482490    0.099185153272131  0.0000
  O1     O1        0.654827409957643    0.452569428906121    0.059641914103187  0.0000
  O1     O1        0.840945390852219    0.519914360224071    0.068390849251905  0.0000
  O1     O1        0.352404260366387    0.461004939182317    0.879197824823919  0.0000
  O3     O3        0.162690576387120    0.492743888652113    0.891142539070990  0.0000
  O1     O1        0.767207449963681    0.213459746477440    0.004806456262496  0.0000
  O1     O1        0.731227919370817    0.759339247515773    0.004949474627379  0.0000
  O3     O3        0.240114044803154    0.218311738202178    0.946177894134234  0.0000
  O1     O1        0.265670745246091    0.752041708310220    0.937143119553015  0.0000
