data_c01325.vasp
_audit_creation_method             Generated by GULP
_audit_author_name                 Salvador R. G. Balestra
_symmetry_space_group_name_H-M     'P 1             '
_symmetry_Int_Tables_number        1

loop_
_symmetry_equiv_pos_site_id
_symmetry_equiv_pos_as_xyz
_cell_length_a                       17.7330
_cell_length_b                        7.8532
_cell_length_c                       10.2922
_cell_angle_alpha                   89.7285
_cell_angle_beta                    90.3968
_cell_angle_gamma                   89.3529

loop_
_atom_site_label
_atom_site_type_symbol
_atom_site_fract_x
_atom_site_fract_y
_atom_site_fract_z
_atom_site_charge
  Ge     Ge        0.052090000000021    0.000000000000000    0.372269999999958  0.0000
  Ge     Ge        0.940491696488663    0.000126634167104    0.615377797200931  0.0000
  Ge     Ge        0.543825122513594    0.979084415336551    0.092258002136106  0.0000
  Ge     Ge        0.939618235979408    0.997887854922031    0.125477394895925  0.0000
  Ge     Ge        0.440822321591277    0.975154700997125    0.832446567895387  0.0000
  Ge     Ge        0.043730292616324    0.998064690900967    0.874455512337571  0.0000
  Ge     Ge        0.148420638775763    0.314940141978050    0.265348899625323  0.0000
  Ge     Ge        0.345465692355559    0.668905298181353    0.260467442591528  0.0000
  Ge     Ge        0.838657742469282    0.316241336504623    0.682454021439442  0.0000
  Ge     Ge        0.820581753864007    0.719518895629752    0.690956056662863  0.0000
  Ge     Ge        0.656277972512131    0.273903722522134    0.691762091891770  0.0000
  Ge     Ge        0.331555886071176    0.263707614458717    0.265639554763751  0.0000
  Ge     Ge        0.662841933132559    0.254570492703601    0.007007105839349  0.0000
  Ge     Ge        0.820605243123869    0.720302221562637    0.005915389570924  0.0000
  Ge     Ge        0.323510577333742    0.253732855402056    0.951380176226092  0.0000
  Ge     Ge        0.167153411472751    0.716579301768295    0.944016023352824  0.0000
  Ge     Ge        0.347352072992722    0.661313054637193    0.944017145594669  0.0000
  Ge     Ge        0.142106138542431    0.312590775637277    0.953160203533429  0.0000
  Ge     Ge        0.642043573601458    0.663325904931779    0.007497957977267  0.0000
  Ge     Ge        0.842265355327929    0.310880343899024    0.000583901907898  0.0000
  Si     Si        0.442369061599881    0.975084436680774    0.345699790147076  0.0000
  Si     Si        0.546493010674868    0.984327578396756    0.587718919492549  0.0000
  Si     Si        0.641695402917681    0.674935712154153    0.699851594366800  0.0000
  Si     Si        0.166875202893130    0.713415957915321    0.253918153416932  0.0000
  O1     O1        0.089942594549377    0.199535693631335    0.362738908890444  0.0000
  O3     O3        0.401607167568952    0.794895467842622    0.357288506205713  0.0000
  O1     O1        0.900520587776588    0.198189539118167    0.591722438504459  0.0000
  O2     O2        0.586675341804781    0.803171101761162    0.619926367500601  0.0000
  O1     O1        0.868171554663856    0.857636137687951    0.594303753670652  0.0000
  O3     O3        0.604279146026304    0.138702800468372    0.595147872542594  0.0000
  O3     O3        0.120442496097259    0.850198056394325    0.336604284852446  0.0000
  O3     O3        0.381495901806635    0.125069622515413    0.366692042566240  0.0000
  O1     O1        0.020640370769607    0.967826894233156    0.528499253967371  0.0000
  O2     O2        0.514997928778664    0.979651799019701    0.439961687202194  0.0000
  O1     O1        0.970287740591829    0.985387032560951    0.283513049573188  0.0000
  O3     O3        0.471829902938281    0.003957585215604    0.199685845026907  0.0000
  O1     O1        0.967649003303326    0.976273302194617    0.776188871820669  0.0000
  O3     O3        0.474622208243979    0.010595669918506    0.678020947283378  0.0000
  O1     O1        0.616711979496987    0.120436702841800    0.109173027323202  0.0000
  O1     O1        0.867977743395443    0.855538946564147    0.105241624764457  0.0000
  O1     O1        0.363754398267320    0.106521963408202    0.852535628193599  0.0000
  O1     O1        0.116188878738067    0.853693813001645    0.849535100315613  0.0000
  O1     O1        0.412350199188314    0.768659830691055    0.854417257113379  0.0000
  O1     O1        0.080184778371716    0.199300738420286    0.860601747642959  0.0000
  O1     O1        0.577736640423294    0.773675670948909    0.097487242141467  0.0000
  O1     O1        0.908276396718574    0.201009202475949    0.089043985901857  0.0000
  O1     O1        0.509704743825510    0.028826009203674    0.940062361938363  0.0000
  O1     O1        0.015781463829760    0.952907942204715    0.030628741401677  0.0000
  O3     O3        0.155381226560271    0.525392152336578    0.314090691680553  0.0000
  O1     O1        0.345490054352474    0.467312978182189    0.321770238499250  0.0000
  O1     O1        0.834581841941148    0.520670874524712    0.626473163996573  0.0000
  O3     O3        0.644210843456457    0.485717682793801    0.641318854923087  0.0000
  O1     O1        0.236841368235717    0.223770250181782    0.270338328320874  0.0000
  O3     O3        0.255187398893114    0.756562663862116    0.256783356765212  0.0000
  O1     O1        0.750278786846714    0.226405037995353    0.678271111591049  0.0000
  O3     O3        0.724270647644667    0.757041412499206    0.698795118961230  0.0000
  O1     O1        0.110750456413103    0.308812423849566    0.111591583163012  0.0000
  O1     O1        0.377529590135694    0.665561846698048    0.103836463152375  0.0000
  O1     O1        0.869978058549863    0.319696892444198    0.841085565281044  0.0000
  O3     O3        0.611436565493399    0.662150801265821    0.846049882534969  0.0000
  O1     O1        0.852667649654620    0.732281833790338    0.848789843828110  0.0000
  O1     O1        0.629082135716203    0.249256896036869    0.849241138605922  0.0000
  O3     O3        0.138656236102084    0.715300639810456    0.105581048258762  0.0000
  O1     O1        0.360162624143685    0.249257870559710    0.106911619939172  0.0000
  O1     O1        0.651553847015174    0.460357909866110    0.063053007067468  0.0000
  O1     O1        0.831994075642328    0.513052366503097    0.059322244584780  0.0000
  O1     O1        0.337661935219497    0.456844474253464    0.891668136657250  0.0000
  O1     O1        0.151249169980834    0.512223710840435    0.890671605624733  0.0000
  O1     O1        0.757284758623968    0.206850748768549    0.004821512897640  0.0000
  O1     O1        0.726160269745533    0.768833686113913    0.010864811873712  0.0000
  O1     O1        0.229081311477558    0.213710411439193    0.959486717744846  0.0000
  O1     O1        0.260739083391311    0.762529361845297    0.935278116619489  0.0000
