data_c01381.vasp
_audit_creation_method             Generated by GULP
_audit_author_name                 Salvador R. G. Balestra
_symmetry_space_group_name_H-M     'P 1             '
_symmetry_Int_Tables_number        1

loop_
_symmetry_equiv_pos_site_id
_symmetry_equiv_pos_as_xyz
_cell_length_a                       17.5785
_cell_length_b                        7.8078
_cell_length_c                       10.1282
_cell_angle_alpha                   90.0017
_cell_angle_beta                    90.0006
_cell_angle_gamma                   91.0607

loop_
_atom_site_label
_atom_site_type_symbol
_atom_site_fract_x
_atom_site_fract_y
_atom_site_fract_z
_atom_site_charge
  Ge     Ge        0.052090000000021    0.000000000000000    0.372269999999958  0.0000
  Ge     Ge        0.552097445319144    0.999968355986251    0.561243266115243  0.0000
  Ge     Ge        0.541684318553881    0.983850849139435    0.068309543776318  0.0000
  Ge     Ge        0.939414923286300    0.045214226837141    0.125030552698336  0.0000
  Ge     Ge        0.439418447655099    0.045183004014757    0.808479368213646  0.0000
  Ge     Ge        0.041661785755772    0.983767251820409    0.865221869586446  0.0000
  Ge     Ge        0.168398466164354    0.293359582521500    0.260814317799931  0.0000
  Ge     Ge        0.325882741094069    0.762613055743619    0.247940928647641  0.0000
  Ge     Ge        0.851226498097169    0.361372333687130    0.678202078665266  0.0000
  Ge     Ge        0.825888853675064    0.762629014954413    0.685597631944187  0.0000
  Ge     Ge        0.668417028294060    0.293337091385564    0.672722318712305  0.0000
  Ge     Ge        0.351222927577160    0.361340671610205    0.255293389236329  0.0000
  Ge     Ge        0.665936573725762    0.267834383733057    0.989994632208783  0.0000
  Ge     Ge        0.818910362642521    0.760875529120227    0.005981997857367  0.0000
  Ge     Ge        0.345643163936619    0.354816132344117    0.935276430579266  0.0000
  Ge     Ge        0.140970142588037    0.674891146861845    0.936456634470986  0.0000
  Ge     Ge        0.318902746953432    0.760823833725701    0.927550383996869  0.0000
  Ge     Ge        0.165903820371054    0.267792457504816    0.943563362807327  0.0000
  Ge     Ge        0.640965454973650    0.674930135032068    0.997037687602690  0.0000
  Ge     Ge        0.845679569910204    0.354897125044409    0.998242041650077  0.0000
  Si     Si        0.443483667245925    0.045631516355786    0.320213191849663  0.0000
  Si     Si        0.943478787059110    0.045634136342744    0.613305352322520  0.0000
  Si     Si        0.647170736789600    0.691889945976011    0.682761271503405  0.0000
  Si     Si        0.147164098652880    0.691898270439264    0.250756992677130  0.0000
  O1     O1        0.121015967568007    0.156719830271858    0.365387916278915  0.0000
  O3     O3        0.373132480009556    0.913527939650721    0.343533015485812  0.0000
  O3     O3        0.914782164887437    0.237341026698370    0.589357937360694  0.0000
  O3     O3        0.587992895342226    0.801343802377649    0.598748111787821  0.0000
  O3     O3        0.873121204276454    0.913548103368521    0.589988544478407  0.0000
  O1     O1        0.621014328817680    0.156710845918350    0.568161889828910  0.0000
  O3     O3        0.087967582852794    0.801374720744989    0.334710369008502  0.0000
  O3     O3        0.414766674778491    0.237322630259996    0.344172994547019  0.0000
  O3     O3        0.018489325397340    0.997147815826965    0.534588981206533  0.0000
  O3     O3        0.518501987941550    0.997168814459769    0.398917170405776  0.0000
  O1     O1        0.972034108444871    0.043861197753375    0.284451685477583  0.0000
  O3     O3        0.464875825928730    0.029673011088137    0.164469134757731  0.0000
  O3     O3        0.964866073261234    0.029644794772513    0.769049079460740  0.0000
  O1     O1        0.472033833049629    0.043757483793265    0.649055306493066  0.0000
  O1     O1        0.616048513048214    0.128422987456186    0.087535591541437  0.0000
  O1     O1        0.864191102162688    0.903604460352904    0.107354726973736  0.0000
  O1     O1        0.411114689619172    0.249778224066866    0.843528415761017  0.0000
  O1     O1        0.074096504049469    0.778756694278367    0.845887252811165  0.0000
  O1     O1        0.364238293874965    0.903454264807220    0.826180235735154  0.0000
  O1     O1        0.116014143225408    0.128372505554465    0.846029327770526  0.0000
  O1     O1        0.574096052583475    0.778817497582857    0.087606301328786  0.0000
  O1     O1        0.911192617752102    0.249827213014297    0.089870541791756  0.0000
  O1     O1        0.514349242803163    0.990899958845395    0.905519296464730  0.0000
  O1     O1        0.014307588905238    0.990678282950535    0.028003198187175  0.0000
  O3     O3        0.157565756089044    0.504231020518371    0.312586356861507  0.0000
  O1     O1        0.345380637804785    0.565319396282931    0.315132032456567  0.0000
  O1     O1        0.845381986817685    0.565347018205590    0.618366446784025  0.0000
  O3     O3        0.657589877661758    0.504211824193439    0.620960421876371  0.0000
  O1     O1        0.264088208691085    0.257468734797782    0.260414608169772  0.0000
  O3     O3        0.228354307278408    0.792589665370506    0.249440444019090  0.0000
  O1     O1        0.764106340926965    0.257441821554648    0.673067320504488  0.0000
  O3     O3        0.728358921763450    0.792585788720686    0.684130237478078  0.0000
  O1     O1        0.133604269930106    0.257337551338334    0.104605748618392  0.0000
  O1     O1        0.354431639967494    0.775058581119448    0.085997617410502  0.0000
  O1     O1        0.879023063288390    0.380555994464335    0.839772976506641  0.0000
  O3     O3        0.616457672688412    0.664349216066490    0.830416570408216  0.0000
  O1     O1        0.854446197129595    0.775096195442226    0.847537710537784  0.0000
  O1     O1        0.633649123547899    0.257359235810397    0.828945215012542  0.0000
  O3     O3        0.116490449222783    0.664291854211203    0.103086689582000  0.0000
  O1     O1        0.379041368647504    0.380423908420371    0.093725324809587  0.0000
  O1     O1        0.652285740796853    0.471952456185617    0.051513530144156  0.0000
  O1     O1        0.830085665308415    0.553900154003421    0.061987356068174  0.0000
  O1     O1        0.330030879623759    0.553821178143057    0.871568649532513  0.0000
  O1     O1        0.152278978844347    0.471894419958593    0.882003383463704  0.0000
  O1     O1        0.762049109094950    0.235105170788667    0.991533265694079  0.0000
  O1     O1        0.723254626062547    0.797317869683405    0.004885753822743  0.0000
  O1     O1        0.262014119553857    0.235027038663935    0.942058212272999  0.0000
  O1     O1        0.223250228325423    0.797314161011333    0.928601964053172  0.0000
