data_c01378.vasp
_audit_creation_method             Generated by GULP
_audit_author_name                 Salvador R. G. Balestra
_symmetry_space_group_name_H-M     'P 1             '
_symmetry_Int_Tables_number        1

loop_
_symmetry_equiv_pos_site_id
_symmetry_equiv_pos_as_xyz
_cell_length_a                       17.5137
_cell_length_b                        7.8264
_cell_length_c                       10.1350
_cell_angle_alpha                   91.1264
_cell_angle_beta                    89.6529
_cell_angle_gamma                   88.3569

loop_
_atom_site_label
_atom_site_type_symbol
_atom_site_fract_x
_atom_site_fract_y
_atom_site_fract_z
_atom_site_charge
  Ge     Ge        0.052090000000021    0.000000000000000    0.372269999999958  0.0000
  Ge     Ge        0.553779820287723    0.988507967084090    0.563266457050447  0.0000
  Ge     Ge        0.542391957420027    0.014563293577108    0.070297577460484  0.0000
  Ge     Ge        0.940554198244258    0.948216088443434    0.124787597456470  0.0000
  Ge     Ge        0.440810063799471    0.944971519650290    0.811004934489071  0.0000
  Ge     Ge        0.043483500053980    0.006685209522678    0.865065682363747  0.0000
  Ge     Ge        0.142893899437223    0.317509433677732    0.255935127112842  0.0000
  Ge     Ge        0.349809916022697    0.644900773955533    0.253827190191830  0.0000
  Ge     Ge        0.828596586894566    0.222547735577798    0.686668380415588  0.0000
  Ge     Ge        0.669663671610837    0.693921464983833    0.674120906986269  0.0000
  Ge     Ge        0.853163848236421    0.622095425943712    0.678838980610249  0.0000
  Ge     Ge        0.327573454291317    0.245093761128015    0.252735151343765  0.0000
  Ge     Ge        0.641384074397259    0.320870845285326    0.998812024428133  0.0000
  Ge     Ge        0.847750332363759    0.636007912865430    0.998798434587698  0.0000
  Ge     Ge        0.320555886644849    0.233706774090406    0.933460563007489  0.0000
  Ge     Ge        0.168809986033165    0.722083304084371    0.941970379558828  0.0000
  Ge     Ge        0.349286329399039    0.636834141356277    0.934157078269733  0.0000
  Ge     Ge        0.139292243317257    0.318873897341798    0.938447840136617  0.0000
  Ge     Ge        0.666896610710733    0.726017737774104    0.991465723880262  0.0000
  Ge     Ge        0.820505814452220    0.232277501502604    0.006827965747762  0.0000
  Si     Si        0.443823038106817    0.958554016112753    0.322929944921729  0.0000
  Si     Si        0.946074603315904    0.933954696967272    0.614200040612572  0.0000
  Si     Si        0.648978625040723    0.296764143956439    0.684976267727209  0.0000
  Si     Si        0.169286421863431    0.714193621501442    0.253828221548672  0.0000
  O1     O1        0.081719616170531    0.204702659784559    0.352232572707317  0.0000
  O3     O3        0.409763184126155    0.772724086996201    0.345696614305484  0.0000
  O3     O3        0.876156461092903    0.068592870463585    0.590446081474767  0.0000
  O1     O1        0.622190654991479    0.828828420546459    0.569922977684905  0.0000
  O3     O3        0.917031075721312    0.743284694188385    0.590422247373013  0.0000
  O3     O3        0.590374636780579    0.185910487328272    0.601054803915574  0.0000
  O3     O3        0.128197644391291    0.858885463678948    0.344588661141579  0.0000
  O3     O3        0.377067163511343    0.100591784801574    0.349661054467046  0.0000
  O3     O3        0.021923180821030    0.976137711840708    0.535048317505137  0.0000
  O3     O3        0.520534357361921    0.993588851723581    0.401355065925772  0.0000
  O1     O1        0.972272254095225    0.954315590298549    0.284423670088227  0.0000
  O3     O3        0.465597311446000    0.970128813085431    0.167225650392059  0.0000
  O3     O3        0.967030717888134    0.955131328477769    0.769636591472519  0.0000
  O1     O1        0.473192973936784    0.948571615123833    0.651320197297958  0.0000
  O1     O1        0.574463739803850    0.219400729586020    0.089485647803475  0.0000
  O1     O1        0.913422200703495    0.743310152368981    0.088935828312710  0.0000
  O1     O1        0.363236289439794    0.081906539165831    0.833005328433513  0.0000
  O1     O1        0.118719674047957    0.861384584644678    0.847417039899284  0.0000
  O1     O1        0.415689095429960    0.739104657496632    0.843858175653116  0.0000
  O1     O1        0.076663009123596    0.208427693023492    0.841851147288690  0.0000
  O1     O1        0.617417526869090    0.870152833173643    0.089017965769527  0.0000
  O1     O1        0.864421416456370    0.089181816880917    0.107614190593279  0.0000
  O1     O1        0.515127488300811    0.004279530635695    0.907875393824796  0.0000
  O1     O1        0.015378429444902    0.003923825597288    0.027858508546936  0.0000
  O3     O3        0.153763672508113    0.527246825113522    0.310862262628745  0.0000
  O1     O1        0.345332721646539    0.445891760524507    0.317505267711742  0.0000
  O1     O1        0.848119866895118    0.417114339551602    0.618861309933395  0.0000
  O3     O3        0.659316926974273    0.482215089285139    0.622875505860093  0.0000
  O1     O1        0.231162464829783    0.215475988199742    0.257990491671260  0.0000
  O3     O3        0.259628533402230    0.742781051487443    0.249252624015595  0.0000
  O3     O3        0.730689117041994    0.195303338718597    0.686614270151841  0.0000
  O1     O1        0.765800314032010    0.727652014566281    0.673600632547280  0.0000
  O1     O1        0.107038207814840    0.325797057809992    0.099874383438467  0.0000
  O1     O1        0.381059424559544    0.622183792179431    0.093974776822898  0.0000
  O1     O1        0.857001656207019    0.213769507197784    0.848412178184327  0.0000
  O1     O1        0.634746090537010    0.734167228628254    0.830638742244056  0.0000
  O1     O1        0.880980931764412    0.605345471456619    0.839953905265045  0.0000
  O3     O3        0.617282478488469    0.328563138858049    0.832386367553318  0.0000
  O3     O3        0.137110995664173    0.728670840996845    0.105505908010104  0.0000
  O1     O1        0.357370777275755    0.228184888518381    0.090769631509012  0.0000
  O1     O1        0.652268842487154    0.524756816367215    0.053299511412890  0.0000
  O1     O1        0.832728235591583    0.439435610108352    0.063335202543311  0.0000
  O1     O1        0.334801269378703    0.435389960636750    0.872941010765337  0.0000
  O1     O1        0.152543140088556    0.518161422301053    0.881481522978222  0.0000
  O1     O1        0.724466712507346    0.198922085736581    0.005744526266835  0.0000
  O1     O1        0.763442801492435    0.755632168589938    0.992413996582761  0.0000
  O1     O1        0.224508030948128    0.202824144736777    0.942267012677639  0.0000
  O1     O1        0.264496503696578    0.755526185402084    0.934774952994086  0.0000
