data_c01372.vasp
_audit_creation_method             Generated by GULP
_audit_author_name                 Salvador R. G. Balestra
_symmetry_space_group_name_H-M     'P 1             '
_symmetry_Int_Tables_number        1

loop_
_symmetry_equiv_pos_site_id
_symmetry_equiv_pos_as_xyz
_cell_length_a                       17.1811
_cell_length_b                        7.7270
_cell_length_c                       10.5486
_cell_angle_alpha                   91.8967
_cell_angle_beta                    89.0681
_cell_angle_gamma                   89.4357

loop_
_atom_site_label
_atom_site_type_symbol
_atom_site_fract_x
_atom_site_fract_y
_atom_site_fract_z
_atom_site_charge
  Ge     Ge        0.052090000000021    0.000000000000000    0.372269999999958  0.0000
  Ge     Ge        0.557323012392223    0.945094563202006    0.585954522815813  0.0000
  Ge     Ge        0.546545418325977    0.983307037775434    0.086896042059873  0.0000
  Ge     Ge        0.933924272581297    0.999863843422250    0.140037282220134  0.0000
  Ge     Ge        0.443486600375622    0.960639160997168    0.837547753927723  0.0000
  Ge     Ge        0.051895728263128    0.967353640533024    0.899984623384669  0.0000
  Ge     Ge        0.144202573599289    0.328041953911300    0.285138772307681  0.0000
  Ge     Ge        0.354911695362692    0.675978994767882    0.258084146978583  0.0000
  Ge     Ge        0.869675674019702    0.279826773214606    0.716611781568141  0.0000
  Ge     Ge        0.653752242625239    0.632745710486478    0.686380078816525  0.0000
  Ge     Ge        0.840844411494489    0.693044595447287    0.704480594411075  0.0000
  Ge     Ge        0.685518306413303    0.220087431206251    0.700519535933923  0.0000
  Ge     Ge        0.331320239947869    0.260945004547673    0.269891941334816  0.0000
  Ge     Ge        0.674501914003514    0.247776281069841    0.008134947730869  0.0000
  Ge     Ge        0.821943685680411    0.727579791196752    0.010600781171850  0.0000
  Ge     Ge        0.323327324418032    0.234570325765042    0.963844208967580  0.0000
  Ge     Ge        0.357833832365151    0.641328686876641    0.954852788892635  0.0000
  Ge     Ge        0.136658883879223    0.314925501738505    0.972542514326491  0.0000
  Ge     Ge        0.636199081038751    0.647396838547411    0.991970122224604  0.0000
  Ge     Ge        0.857581728786071    0.325894276143450    0.023599072874322  0.0000
  Si     Si        0.451559032045072    0.989763006568049    0.346388947168136  0.0000
  Si     Si        0.968820059437659    0.954604015452461    0.633944289367947  0.0000
  Si     Si        0.176874477612310    0.714704315940539    0.266556021888728  0.0000
  Si     Si        0.179259851746335    0.692113477008094    0.964530754432017  0.0000
  O1     O1        0.080264659327196    0.211719301792284    0.374520794447985  0.0000
  O3     O3        0.419340437266644    0.795633854151174    0.349643581005680  0.0000
  O3     O3        0.941453639942882    0.154679341101327    0.639720946792072  0.0000
  O1     O1        0.589099805160988    0.734059905252419    0.590109630365658  0.0000
  O3     O3        0.893400356992658    0.835557985182709    0.613999374724811  0.0000
  O1     O1        0.640365162619760    0.060686336139455    0.615156400826151  0.0000
  O3     O3        0.130073160710485    0.890038920584562    0.297569110354565  0.0000
  O3     O3        0.381128040512017    0.126532306770676    0.370212430790643  0.0000
  O3     O3        0.032590465167868    0.928522085652489    0.522103110221371  0.0000
  O3     O3        0.522995970468632    0.004098135906468    0.440394132609944  0.0000
  O1     O1        0.968882767003871    0.968409836237388    0.287630010048620  0.0000
  O3     O3        0.482858600808187    0.040090877282764    0.207206620181956  0.0000
  O3     O3        0.008482825317038    0.895258282719541    0.762992114931374  0.0000
  O1     O1        0.481514887487459    0.989817936065582    0.689635920663763  0.0000
  O1     O1        0.631830315887850    0.096568946618141    0.099616962294094  0.0000
  O1     O1        0.848331524630562    0.892402102843998    0.112466641306990  0.0000
  O1     O1        0.358120226298587    0.075385885664181    0.862121274829452  0.0000
  O3     O3        0.142274103549946    0.869709080638672    0.922246493347278  0.0000
  O1     O1        0.423618667106838    0.745381055595449    0.860505593171576  0.0000
  O1     O1        0.069948658424148    0.185641396829165    0.896600213941081  0.0000
  O1     O1        0.568465083550134    0.765573368440712    0.079852087767342  0.0000
  O1     O1        0.919387784444057    0.217355971574316    0.120146267272145  0.0000
  O1     O1        0.507165360866908    0.045388712581471    0.946686753099552  0.0000
  O1     O1        0.996304209867125    0.909180230085343    0.026027926663710  0.0000
  O3     O3        0.128167390030832    0.550618265419817    0.311245448124400  0.0000
  O1     O1        0.375045252475997    0.459978844509414    0.266485218717871  0.0000
  O1     O1        0.888247874182545    0.496967605035575    0.707065373757131  0.0000
  O1     O1        0.637218627314596    0.414090278782226    0.685953479195704  0.0000
  O1     O1        0.238089420440248    0.290523869036069    0.328413877327055  0.0000
  O3     O3        0.262754652139417    0.722464882780526    0.323396687304464  0.0000
  O1     O1        0.780763279586020    0.241633766769250    0.650181113262263  0.0000
  O1     O1        0.749653242049306    0.662487361931480    0.643044914948599  0.0000
  O1     O1        0.125338184827307    0.268015827967041    0.130244281478710  0.0000
  O1     O1        0.368388661833200    0.735939931032869    0.104130229131667  0.0000
  O1     O1        0.870056092754353    0.229970356151049    0.874084152298559  0.0000
  O1     O1        0.634778090878831    0.716550501364652    0.837856117629379  0.0000
  O1     O1        0.827184534936804    0.783555515936436    0.854325299980694  0.0000
  O1     O1        0.690274054884876    0.165435363541095    0.856385267947848  0.0000
  O2     O2        0.197190779366401    0.677899418850925    0.116022150686847  0.0000
  O1     O1        0.323032021368232    0.172758466901329    0.119265585681322  0.0000
  O1     O1        0.616971143651739    0.431338865959997    0.998750475675288  0.0000
  O1     O1        0.878037507859281    0.541739221873097    0.024844252257969  0.0000
  O1     O1        0.376110626999976    0.423835334622361    0.954521332070977  0.0000
  O3     O3        0.121463219577368    0.532010767923765    0.937425294711876  0.0000
  O1     O1        0.762449515652217    0.301753341355244    0.071534996919987  0.0000
  O1     O1        0.728182366422394    0.676197266954756    0.049109367795612  0.0000
  O1     O1        0.229718377683350    0.275914588667169    0.920472644280072  0.0000
  O3     O3        0.263584536909331    0.671285483461325    0.899448794478729  0.0000
