data_c01377.vasp
_audit_creation_method             Generated by GULP
_audit_author_name                 Salvador R. G. Balestra
_symmetry_space_group_name_H-M     'P 1             '
_symmetry_Int_Tables_number        1

loop_
_symmetry_equiv_pos_site_id
_symmetry_equiv_pos_as_xyz
_cell_length_a                       17.5855
_cell_length_b                        7.8420
_cell_length_c                       10.0618
_cell_angle_alpha                   89.8289
_cell_angle_beta                    90.4740
_cell_angle_gamma                   91.4414

loop_
_atom_site_label
_atom_site_type_symbol
_atom_site_fract_x
_atom_site_fract_y
_atom_site_fract_z
_atom_site_charge
  Ge     Ge        0.052090000000021    0.000000000000000    0.372269999999958  0.0000
  Ge     Ge        0.551302109754928    0.016626393389122    0.595895773760539  0.0000
  Ge     Ge        0.545613506475426    0.999604750809051    0.108743903328879  0.0000
  Ge     Ge        0.941030539246986    0.053696803327953    0.120018230445492  0.0000
  Ge     Ge        0.442838142252172    0.057760995695255    0.848840091315773  0.0000
  Ge     Ge        0.041916106967592    0.992265713885094    0.860448673236156  0.0000
  Ge     Ge        0.170656248426229    0.286208916567922    0.253349283846952  0.0000
  Ge     Ge        0.329556122554926    0.753560652544376    0.248713616930267  0.0000
  Ge     Ge        0.848203357548458    0.368132950061224    0.673288397330020  0.0000
  Ge     Ge        0.644907422769691    0.697448237267590    0.671692184162828  0.0000
  Ge     Ge        0.828161179718153    0.767245393175879    0.679551046011971  0.0000
  Ge     Ge        0.145556399622811    0.686017054715818    0.256524243631278  0.0000
  Ge     Ge        0.668695676219137    0.285704793501038    0.988238248915801  0.0000
  Ge     Ge        0.820883492073866    0.768062750434940    0.001144239327668  0.0000
  Ge     Ge        0.344303769428358    0.365719507656058    0.922408831740803  0.0000
  Ge     Ge        0.142394653935864    0.684955277328518    0.931651585667386  0.0000
  Ge     Ge        0.321749884285978    0.769560242810756    0.927641832211756  0.0000
  Ge     Ge        0.165960053786099    0.280194594885381    0.932581242241331  0.0000
  Ge     Ge        0.638759776839245    0.689923307279710    0.991156939980605  0.0000
  Ge     Ge        0.849023436153695    0.366901625901846    0.996609386316838  0.0000
  Si     Si        0.441570017165602    0.052740950339016    0.354756147766667  0.0000
  Si     Si        0.942707444526405    0.055836307227226    0.610020307284007  0.0000
  Si     Si        0.669590516144207    0.302020131353848    0.672033729914571  0.0000
  Si     Si        0.350000005176989    0.358977484335086    0.237144942429675  0.0000
  O1     O1        0.130691136476149    0.130381282796338    0.350555095524857  0.0000
  O3     O3        0.379101271626353    0.901062415820511    0.344983628702269  0.0000
  O3     O3        0.909247730781851    0.241845345334687    0.584272435750232  0.0000
  O1     O1        0.587727705524434    0.818549233510068    0.571146714690065  0.0000
  O3     O3        0.877210941175727    0.913644492008541    0.581239914733750  0.0000
  O3     O3        0.623514257846677    0.169688449352999    0.579013508095727  0.0000
  O1     O1        0.080322056579958    0.795775211114196    0.345961871945221  0.0000
  O2     O2        0.408679584464935    0.235992383524870    0.312982745761290  0.0000
  O3     O3        0.020369963892234    0.021616596105453    0.534909313718467  0.0000
  O3     O3        0.470392996458394    0.062754324683724    0.506756707978158  0.0000
  O1     O1        0.974080424487943    0.054217639822141    0.280834375118671  0.0000
  O3     O3        0.517273079076520    0.012996750766805    0.273143771163558  0.0000
  O3     O3        0.963007159799297    0.038674945577877    0.767305031062226  0.0000
  O1     O1        0.521037342541743    0.019070773966308    0.758762468075142  0.0000
  O1     O1        0.622635362082453    0.133015409014037    0.078972412813349  0.0000
  O1     O1        0.863729551123839    0.917489756362090    0.101593108415196  0.0000
  O1     O1        0.407729282888666    0.259288635630323    0.828198244514620  0.0000
  O1     O1        0.077960865861550    0.792865906534549    0.836997078768125  0.0000
  O1     O1        0.370489728853759    0.907920821037039    0.826970435265259  0.0000
  O1     O1        0.113451523017921    0.142536555886944    0.836784726474787  0.0000
  O1     O1        0.573146613771478    0.793423654528367    0.083015684613669  0.0000
  O1     O1        0.916613673355073    0.259387571182883    0.082626825343759  0.0000
  O1     O1        0.469227465124522    0.051213656060823    0.014504374852174  0.0000
  O1     O1        0.015109631427378    0.990786899283533    0.024561342235308  0.0000
  O1     O1        0.152377154208496    0.482487242753029    0.318301739552984  0.0000
  O3     O3        0.345999296049507    0.545382251753697    0.303169911085478  0.0000
  O1     O1        0.844285223829844    0.569539276874664    0.610650840028276  0.0000
  O3     O3        0.656962554449713    0.492201251973772    0.615301487495709  0.0000
  O3     O3        0.267946323700297    0.264444967859808    0.240837506009942  0.0000
  O1     O1        0.233954396406132    0.786252179232479    0.261665213642210  0.0000
  O3     O3        0.759107934565074    0.266872058845026    0.672565837168837  0.0000
  O1     O1        0.732530970447149    0.800294328960903    0.677753474893137  0.0000
  O1     O1        0.134753382335878    0.265587093715901    0.094586060175172  0.0000
  O1     O1        0.357789218313201    0.780418522268695    0.087827994804374  0.0000
  O1     O1        0.878040723975309    0.389633525640970    0.834551619792498  0.0000
  O1     O1        0.607758385791281    0.686917097135255    0.828230343156545  0.0000
  O1     O1        0.857737742621896    0.777822516291722    0.842851824896819  0.0000
  O3     O3        0.639197400733371    0.285565050782832    0.822591516813465  0.0000
  O1     O1        0.114763446263634    0.667730080333991    0.095081926836685  0.0000
  O3     O3        0.375605265015992    0.388646479807309    0.086503946433621  0.0000
  O1     O1        0.650112156319482    0.485960872975243    0.047909915382777  0.0000
  O1     O1        0.836399138535632    0.565419261337410    0.061765362942017  0.0000
  O1     O1        0.331358006047777    0.566299055371614    0.864193850821817  0.0000
  O1     O1        0.154797131145106    0.485068854923412    0.872384286687951  0.0000
  O1     O1        0.764235148077519    0.251996395445782    0.997468463058063  0.0000
  O1     O1        0.724988641261104    0.799028454934470    0.994959812632119  0.0000
  O1     O1        0.261407178707532    0.243745030095838    0.925432914025136  0.0000
  O1     O1        0.226281803267893    0.805161293933491    0.933224799326368  0.0000
