data_c01369.vasp
_audit_creation_method             Generated by GULP
_audit_author_name                 Salvador R. G. Balestra
_symmetry_space_group_name_H-M     'P 1             '
_symmetry_Int_Tables_number        1

loop_
_symmetry_equiv_pos_site_id
_symmetry_equiv_pos_as_xyz
_cell_length_a                       17.5547
_cell_length_b                        7.8105
_cell_length_c                       10.1410
_cell_angle_alpha                   91.2924
_cell_angle_beta                    89.7418
_cell_angle_gamma                   91.1011

loop_
_atom_site_label
_atom_site_type_symbol
_atom_site_fract_x
_atom_site_fract_y
_atom_site_fract_z
_atom_site_charge
  Ge     Ge        0.052090000000021    0.000000000000000    0.372269999999958  0.0000
  Ge     Ge        0.549881810747284    0.987003676258760    0.597462899720738  0.0000
  Ge     Ge        0.547888673980086    0.999003597737724    0.112106307137963  0.0000
  Ge     Ge        0.936947599126566    0.053169189677345    0.131092922808768  0.0000
  Ge     Ge        0.444791848415714    0.043291651337966    0.854956334695420  0.0000
  Ge     Ge        0.040654913920545    0.977597967491227    0.871445079924418  0.0000
  Ge     Ge        0.169113707620337    0.291853457098801    0.261434238362293  0.0000
  Ge     Ge        0.325923258396690    0.760201850917184    0.249931760087901  0.0000
  Ge     Ge        0.852687815852937    0.350753166199288    0.691493696351367  0.0000
  Ge     Ge        0.647643496541780    0.677657894090461    0.676068057156201  0.0000
  Ge     Ge        0.827978680088983    0.756017744691904    0.688019035007920  0.0000
  Ge     Ge        0.671059063461553    0.271657674122108    0.684112946236279  0.0000
  Ge     Ge        0.352529193625319    0.359018705667085    0.250081858557322  0.0000
  Ge     Ge        0.665743944556738    0.289677208070434    0.001272576519197  0.0000
  Ge     Ge        0.817835866138690    0.768244985666011    0.008378404126504  0.0000
  Ge     Ge        0.344771142205535    0.353390530178321    0.929714504667754  0.0000
  Ge     Ge        0.143267154741504    0.671510693290271    0.936372384542974  0.0000
  Ge     Ge        0.321091592082556    0.757761340738035    0.929649569759186  0.0000
  Ge     Ge        0.165829718890137    0.264837823007232    0.944340540345682  0.0000
  Ge     Ge        0.848038517770305    0.367101393536222    0.010730273884599  0.0000
  Si     Si        0.442390360362792    0.047175193142711    0.359225785019054  0.0000
  Si     Si        0.945749315401539    0.036321466778954    0.616998637487955  0.0000
  Si     Si        0.147208631739308    0.688606568831839    0.251549526353611  0.0000
  Si     Si        0.640657357850779    0.688286214003165    0.989601269990447  0.0000
  O1     O1        0.121437821768985    0.155480503540445    0.363913558946651  0.0000
  O3     O3        0.368831467146451    0.925172818215807    0.339137013680763  0.0000
  O3     O3        0.915196648232825    0.226804642590312    0.598273312659223  0.0000
  O1     O1        0.584295771668586    0.783798956107185    0.580477387682877  0.0000
  O3     O3        0.878829935091209    0.896000725983265    0.589791494157316  0.0000
  O1     O1        0.623684602753859    0.131834647269659    0.579685977323491  0.0000
  O3     O3        0.086222275785540    0.799801408291464    0.331999622528492  0.0000
  O3     O3        0.420619094082020    0.241162460457341    0.329283214694705  0.0000
  O3     O3        0.021472099846400    0.996994143689835    0.536128007546289  0.0000
  O3     O3        0.469614851330363    0.032767905724005    0.509933937080619  0.0000
  O1     O1        0.970448047327733    0.043665190844683    0.289038511104796  0.0000
  O3     O3        0.515111219654052    0.986950069435043    0.273622453527787  0.0000
  O3     O3        0.965058977630626    0.019456371708860    0.772746874995063  0.0000
  O1     O1        0.522188824781971    0.004330589044637    0.761186955666302  0.0000
  O1     O1        0.618957781745210    0.152213541340075    0.103971029345331  0.0000
  O1     O1        0.856790342024099    0.925637277786474    0.106700732038619  0.0000
  O1     O1        0.406545469407474    0.241758374747584    0.831837996380047  0.0000
  O1     O1        0.074805969589489    0.773577078956231    0.850850417209800  0.0000
  O1     O1        0.373535674695946    0.890415953314852    0.832751977445379  0.0000
  O1     O1        0.114417609259194    0.122652071851145    0.849823244391682  0.0000
  O3     O3        0.578123939293962    0.795074423488837    0.069122498079856  0.0000
  O1     O1        0.912682589130168    0.261037235274479    0.101943072916932  0.0000
  O1     O1        0.471815582145789    0.049100081050121    0.018784987115717  0.0000
  O1     O1        0.010460155980429    0.987721458748571    0.032678522956312  0.0000
  O3     O3        0.156824399083131    0.503143468246321    0.314277836616497  0.0000
  O1     O1        0.347143782720824    0.565195328166927    0.313956075981083  0.0000
  O1     O1        0.843027521011390    0.549814213766833    0.628529167771246  0.0000
  O1     O1        0.659704300092879    0.473303503261298    0.620951164314053  0.0000
  O1     O1        0.265210200662602    0.257369424193169    0.262463909319925  0.0000
  O3     O3        0.228263660408184    0.789405067306490    0.253213276843515  0.0000
  O1     O1        0.766926934679144    0.238838442245541    0.692577421635476  0.0000
  O1     O1        0.732299615655191    0.792834454586703    0.676303483169878  0.0000
  O1     O1        0.133969153121301    0.254540267040960    0.105569965055413  0.0000
  O1     O1        0.354939008250121    0.772710975514743    0.089033591215476  0.0000
  O1     O1        0.882122176290873    0.378125434057998    0.851566673336016  0.0000
  O3     O3        0.615470842721439    0.663842535955094    0.838027101151308  0.0000
  O1     O1        0.854658928055875    0.773675238542753    0.850937140557944  0.0000
  O1     O1        0.634628011841425    0.256981001487522    0.842121069875210  0.0000
  O3     O3        0.119412904082819    0.657221569037924    0.102583431065802  0.0000
  O1     O1        0.377972460469978    0.381999254749939    0.088693797371936  0.0000
  O3     O3        0.650572045971035    0.501981590838950    0.050173258570487  0.0000
  O1     O1        0.836459346009136    0.571175016094824    0.071998216434206  0.0000
  O1     O1        0.328987867515550    0.550163249525701    0.868586576351598  0.0000
  O1     O1        0.154083786312177    0.466871286874445    0.881114852082131  0.0000
  O1     O1        0.761773576318727    0.258063202291077    0.008021494222870  0.0000
  O3     O3        0.720409580186133    0.794322778976191    0.996036994001603  0.0000
  O1     O1        0.261801842295569    0.231074325893687    0.942728770740227  0.0000
  O1     O1        0.225303237375970    0.795959320540590    0.927971527677022  0.0000
