data_c01379.vasp
_audit_creation_method             Generated by GULP
_audit_author_name                 Salvador R. G. Balestra
_symmetry_space_group_name_H-M     'P 1             '
_symmetry_Int_Tables_number        1

loop_
_symmetry_equiv_pos_site_id
_symmetry_equiv_pos_as_xyz
_cell_length_a                       17.8015
_cell_length_b                        7.8258
_cell_length_c                       10.2240
_cell_angle_alpha                   88.4218
_cell_angle_beta                    89.6493
_cell_angle_gamma                   89.9476

loop_
_atom_site_label
_atom_site_type_symbol
_atom_site_fract_x
_atom_site_fract_y
_atom_site_fract_z
_atom_site_charge
  Ge     Ge        0.052090000000021    0.000000000000000    0.372269999999958  0.0000
  Ge     Ge        0.553677134143236    0.063726654088055    0.594817159237366  0.0000
  Ge     Ge        0.552536798680022    0.051749563077192    0.113857429690603  0.0000
  Ge     Ge        0.944551138780379    0.021929347087605    0.117202639528701  0.0000
  Ge     Ge        0.450442316136368    0.054329502548881    0.856310634936866  0.0000
  Ge     Ge        0.049312300206249    0.038761479285935    0.864383520744414  0.0000
  Ge     Ge        0.171637180156598    0.289824055465793    0.249855945551280  0.0000
  Ge     Ge        0.335809597009696    0.740464838484171    0.254857258222604  0.0000
  Ge     Ge        0.834981579299799    0.321806119579279    0.684278904933362  0.0000
  Ge     Ge        0.672789639195823    0.779562204394211    0.676327805706173  0.0000
  Ge     Ge        0.653376382666642    0.373436382671156    0.675093718465792  0.0000
  Ge     Ge        0.153638098279753    0.695884713843840    0.268073943627244  0.0000
  Ge     Ge        0.647209533780058    0.368645287092883    0.993656644536785  0.0000
  Ge     Ge        0.851051523817089    0.710480440833312    0.995994722409841  0.0000
  Ge     Ge        0.349256678783539    0.367251892949752    0.928679422327445  0.0000
  Ge     Ge        0.150341541871710    0.721835673399740    0.948369262917013  0.0000
  Ge     Ge        0.329361539953098    0.774676735674316    0.937554207454473  0.0000
  Ge     Ge        0.171394173647490    0.312976975322014    0.931289029128374  0.0000
  Ge     Ge        0.673295995204517    0.779516730825547    0.994514462524630  0.0000
  Ge     Ge        0.826533914564963    0.304829990867922    0.000995859870457  0.0000
  Si     Si        0.445402276373649    0.032741555167378    0.356960933205666  0.0000
  Si     Si        0.945851849801610    0.032717621471024    0.617464999794787  0.0000
  Si     Si        0.849472467289555    0.719077701673599    0.684116365315395  0.0000
  Si     Si        0.349073893556555    0.341051390345050    0.240468253664842  0.0000
  O1     O1        0.126224189496352    0.135221931272655    0.339145710315353  0.0000
  O3     O3        0.390244587448868    0.872279348700388    0.348839073454098  0.0000
  O3     O3        0.887136749969575    0.185240817245395    0.587889835841268  0.0000
  O1     O1        0.625166429587859    0.918116261198865    0.575121588242347  0.0000
  O2     O2        0.906087746697522    0.846809127074859    0.603862113784812  0.0000
  O1     O1        0.593465805446812    0.261714599293943    0.578284308793710  0.0000
  O1     O1        0.089993911734043    0.799731748869302    0.363768235575412  0.0000
  O2     O2        0.405610658777726    0.210910148477929    0.314557905947205  0.0000
  O3     O3        0.019735334664467    0.039981399384733    0.529016744093722  0.0000
  O3     O3        0.472761136335372    0.042083455929769    0.505848138604478  0.0000
  O1     O1        0.974975264329941    0.027705022178555    0.275693659258657  0.0000
  O3     O3        0.521545489926949    0.015490836152126    0.273214288431983  0.0000
  O3     O3        0.971888932742232    0.056438812878108    0.766356864147384  0.0000
  O1     O1        0.524304213026177    0.028309053840049    0.754560987515593  0.0000
  O1     O1        0.581938788234222    0.258921825010472    0.085812395432554  0.0000
  O1     O1        0.919260602045977    0.817488429179266    0.075784929448423  0.0000
  O1     O1        0.415722247058399    0.259770700205071    0.842934359845803  0.0000
  O1     O1        0.087088348459941    0.837679695423388    0.857886115652191  0.0000
  O1     O1        0.376862892317604    0.914419605544252    0.837331167902992  0.0000
  O1     O1        0.118928073895945    0.187017711390372    0.833383316197132  0.0000
  O1     O1        0.627968077446687    0.918609718637300    0.092309650916158  0.0000
  O1     O1        0.869516144485867    0.157683082882965    0.101334569400060  0.0000
  O1     O1        0.480232650234787    0.005577425817721    0.013014594542474  0.0000
  O1     O1        0.018531880930802    0.082709243210025    0.019722563136769  0.0000
  O1     O1        0.156706371658655    0.485444560191157    0.317223143135179  0.0000
  O3     O3        0.347255990650137    0.526158679142357    0.304580819156861  0.0000
  O3     O3        0.846296295749883    0.532073310919654    0.623923720684707  0.0000
  O1     O1        0.658801733454789    0.579133095384422    0.617549650263730  0.0000
  O3     O3        0.267664811992498    0.253437279327957    0.244857023528991  0.0000
  O1     O1        0.242213947948995    0.784495011757492    0.274584731684423  0.0000
  O1     O1        0.740861972951999    0.277841450662109    0.675410093813516  0.0000
  O3     O3        0.768946541757806    0.812180683541242    0.681051948634640  0.0000
  O1     O1        0.141369266990994    0.292398012045331    0.091537771514914  0.0000
  O1     O1        0.362782223839612    0.769829661883525    0.095897376377439  0.0000
  O1     O1        0.862011167368869    0.298907103067066    0.844071171487574  0.0000
  O1     O1        0.642433718852593    0.796189932992481    0.835457490377944  0.0000
  O3     O3        0.876386379654273    0.691862790008453    0.832654215293157  0.0000
  O1     O1        0.618851159738884    0.373070923945242    0.832780309205382  0.0000
  O1     O1        0.121609011247196    0.712227963042306    0.109403983121383  0.0000
  O3     O3        0.376659855647425    0.366733433399303    0.091885473072162  0.0000
  O1     O1        0.657960201113611    0.571267848370778    0.048281416783109  0.0000
  O1     O1        0.840919479807141    0.507218853609056    0.059111476324642  0.0000
  O1     O1        0.340040283933776    0.573261469171482    0.874458780544529  0.0000
  O1     O1        0.160973741646528    0.524591997576789    0.884372678840649  0.0000
  O1     O1        0.732222131422418    0.263889683284435    0.997664563847076  0.0000
  O1     O1        0.767840962600798    0.820287747098066    0.002766187645526  0.0000
  O1     O1        0.264753054179929    0.262092789151511    0.919960526652517  0.0000
  O1     O1        0.235924091242305    0.824861776140412    0.946060564211753  0.0000
