data_c01368.vasp
_audit_creation_method             Generated by GULP
_audit_author_name                 Salvador R. G. Balestra
_symmetry_space_group_name_H-M     'P 1             '
_symmetry_Int_Tables_number        1

loop_
_symmetry_equiv_pos_site_id
_symmetry_equiv_pos_as_xyz
_cell_length_a                       17.5684
_cell_length_b                        7.8060
_cell_length_c                       10.1883
_cell_angle_alpha                   90.3120
_cell_angle_beta                    89.9407
_cell_angle_gamma                   91.0817

loop_
_atom_site_label
_atom_site_type_symbol
_atom_site_fract_x
_atom_site_fract_y
_atom_site_fract_z
_atom_site_charge
  Ge     Ge        0.052090000000021    0.000000000000000    0.372269999999958  0.0000
  Ge     Ge        0.551134827298093    0.987700252185309    0.567726198034869  0.0000
  Ge     Ge        0.546254017989824    0.972322906900076    0.076856251718675  0.0000
  Ge     Ge        0.938610163167322    0.033187041227276    0.127741084655503  0.0000
  Ge     Ge        0.443681542546948    0.038637816807039    0.820162482171992  0.0000
  Ge     Ge        0.044948411309458    0.975784990962305    0.872794965785162  0.0000
  Ge     Ge        0.169595663270683    0.293000486589747    0.266118184610277  0.0000
  Ge     Ge        0.327207552691101    0.762640814558489    0.252808243575640  0.0000
  Ge     Ge        0.853961248246561    0.344817689035341    0.690298975387006  0.0000
  Ge     Ge        0.647051062854771    0.675884565264610    0.689810863776663  0.0000
  Ge     Ge        0.829547748598092    0.751798355734000    0.695502566380423  0.0000
  Ge     Ge        0.672944966999265    0.270139614102929    0.681100713882959  0.0000
  Ge     Ge        0.352065624675561    0.362547627595182    0.264104837432520  0.0000
  Ge     Ge        0.669878237247293    0.256627970250487    0.998066551012013  0.0000
  Ge     Ge        0.823728678151542    0.737438135640663    0.012164051136556  0.0000
  Ge     Ge        0.349382315095003    0.350057587066785    0.944947351074980  0.0000
  Ge     Ge        0.144605348619605    0.666338014100922    0.940387851833892  0.0000
  Ge     Ge        0.322520120766608    0.754725635802827    0.934028435994011  0.0000
  Ge     Ge        0.169856035535794    0.260486520555797    0.949704396057050  0.0000
  Ge     Ge        0.643135573395996    0.658298293542878    0.009741135928261  0.0000
  Si     Si        0.445505531023000    0.046681633492912    0.324051745183829  0.0000
  Si     Si        0.947479783324415    0.032766629964720    0.619380082419914  0.0000
  Si     Si        0.148559960225007    0.690395165008375    0.252978381328484  0.0000
  Si     Si        0.846985318696573    0.337916996899328    0.000456137476998  0.0000
  O1     O1        0.120757527342536    0.157553365187147    0.368501663429864  0.0000
  O3     O3        0.374336395072091    0.916466905621142    0.345904234779546  0.0000
  O3     O3        0.918607675405840    0.225664765956078    0.600871135078655  0.0000
  O1     O1        0.580839781264627    0.784863915367155    0.601244107191815  0.0000
  O3     O3        0.878418833847015    0.896816909576207    0.597514581996485  0.0000
  O1     O1        0.627080049201557    0.126527832125348    0.580483549414369  0.0000
  O3     O3        0.087706737128251    0.801972346273075    0.331057991056902  0.0000
  O3     O3        0.417224159803208    0.238722038820381    0.348410914490576  0.0000
  O3     O3        0.020691594629325    0.989897195372220    0.534596428172269  0.0000
  O3     O3        0.518724926042356    0.997099182380884    0.406294688907497  0.0000
  O1     O1        0.972013383376208    0.046476959616628    0.285630255932359  0.0000
  O3     O3        0.469847323544179    0.028992472373039    0.170626160300274  0.0000
  O3     O3        0.969731374193783    0.016900010848279    0.773281422006856  0.0000
  O1     O1        0.474666785582788    0.044360260864162    0.660658721353610  0.0000
  O1     O1        0.623617514907724    0.110133271473003    0.093054064848430  0.0000
  O1     O1        0.869845839884051    0.874468132187643    0.117486999121503  0.0000
  O1     O1        0.417485172839198    0.243260835829984    0.860442264464070  0.0000
  O1     O1        0.077093504698898    0.770283951350239    0.852959286405461  0.0000
  O1     O1        0.367986261028155    0.897616961932082    0.833956680493872  0.0000
  O1     O1        0.120159550604814    0.118419023178741    0.854242208227192  0.0000
  O1     O1        0.578266581404160    0.768620954866870    0.101607193827516  0.0000
  O3     O3        0.905164272387736    0.233724849191254    0.087568078246883  0.0000
  O1     O1        0.518147509953293    0.976268360883617    0.915002004843750  0.0000
  O1     O1        0.015854417190278    0.988210962960707    0.033459609472833  0.0000
  O3     O3        0.158734158544089    0.504452363462854    0.317182022647905  0.0000
  O1     O1        0.346443463760008    0.567491168029686    0.322994943971615  0.0000
  O1     O1        0.846650487975447    0.548796188321607    0.633954255940391  0.0000
  O1     O1        0.660024171833678    0.475241322205514    0.625408866770387  0.0000
  O1     O1        0.265464691355459    0.257081662274037    0.270524571195052  0.0000
  O3     O3        0.229611726764551    0.792282858109093    0.253318198501647  0.0000
  O1     O1        0.768789215062122    0.234694992566765    0.681747238872718  0.0000
  O1     O1        0.733392051135149    0.785817131073097    0.690411655628951  0.0000
  O1     O1        0.137371918403931    0.253693222758175    0.109617873735380  0.0000
  O1     O1        0.356856805720433    0.773196821568336    0.092316187757909  0.0000
  O3     O3        0.880032884056350    0.362508601944304    0.854293291463585  0.0000
  O1     O1        0.615580416999208    0.648310450274777    0.847441481082462  0.0000
  O1     O1        0.859139595793487    0.766004746868376    0.856478905114867  0.0000
  O1     O1        0.637928469655344    0.245448625611856    0.838264321916969  0.0000
  O3     O3        0.120132082704360    0.655404610357108    0.105805582773828  0.0000
  O1     O1        0.379094860671407    0.384205559747988    0.103478046748309  0.0000
  O1     O1        0.651726001625973    0.454932637431355    0.065356152680571  0.0000
  O3     O3        0.833435173506606    0.525024582855686    0.060985287539373  0.0000
  O1     O1        0.334916398290312    0.547618410438114    0.878457635164112  0.0000
  O1     O1        0.156705954306729    0.463207602322348    0.886085536217398  0.0000
  O3     O3        0.767503844023642    0.230319937007051    0.993105916119590  0.0000
  O1     O1        0.728101392628406    0.772842913119633    0.012478527164357  0.0000
  O1     O1        0.266209398316014    0.228319126763585    0.948306474711910  0.0000
  O1     O1        0.226749461269930    0.789569009507085    0.933117124325153  0.0000
