data_c01324.vasp
_audit_creation_method             Generated by GULP
_audit_author_name                 Salvador R. G. Balestra
_symmetry_space_group_name_H-M     'P 1             '
_symmetry_Int_Tables_number        1

loop_
_symmetry_equiv_pos_site_id
_symmetry_equiv_pos_as_xyz
_cell_length_a                       17.7805
_cell_length_b                        7.8802
_cell_length_c                       10.1685
_cell_angle_alpha                   88.1749
_cell_angle_beta                    91.4098
_cell_angle_gamma                   89.5774

loop_
_atom_site_label
_atom_site_type_symbol
_atom_site_fract_x
_atom_site_fract_y
_atom_site_fract_z
_atom_site_charge
  Ge     Ge        0.052090000000021    0.000000000000000    0.372269999999958  0.0000
  Ge     Ge        0.935826864638285    0.028391984977789    0.605098264150542  0.0000
  Ge     Ge        0.544819988425284    0.046667817202382    0.111098643643937  0.0000
  Ge     Ge        0.938067651794551    0.016188691046668    0.119348562686323  0.0000
  Ge     Ge        0.438283430065422    0.052448434609326    0.850335761351321  0.0000
  Ge     Ge        0.039119781991375    0.039107903638109    0.866144954536300  0.0000
  Ge     Ge        0.167931223146885    0.291605917497607    0.249400801215257  0.0000
  Ge     Ge        0.334853865779461    0.728493871296848    0.254953798361123  0.0000
  Ge     Ge        0.820082151707494    0.314263948880852    0.679250921937257  0.0000
  Ge     Ge        0.832762976439340    0.715937929307592    0.671197699034514  0.0000
  Ge     Ge        0.637514027195678    0.359919277449559    0.684665352421316  0.0000
  Ge     Ge        0.151535391543949    0.693675099732193    0.267570352832950  0.0000
  Ge     Ge        0.638256466426815    0.362673551072290    0.000342822997942  0.0000
  Ge     Ge        0.843228327175899    0.708639877424074    0.993206362120703  0.0000
  Ge     Ge        0.338553276003057    0.361744916182191    0.925789753782539  0.0000
  Ge     Ge        0.144003421372944    0.723922663077247    0.947117091697889  0.0000
  Ge     Ge        0.323549855852019    0.767519560047221    0.937154274431907  0.0000
  Ge     Ge        0.160220572475057    0.317900952239845    0.929294348335681  0.0000
  Ge     Ge        0.663655883888998    0.765792885972178    0.992971708909250  0.0000
  Ge     Ge        0.819835723984979    0.303950349318001    0.997543910228829  0.0000
  Si     Si        0.443724659960409    0.018778442083808    0.356076242503613  0.0000
  Si     Si        0.544803453638712    0.048603175461905    0.605924581607648  0.0000
  Si     Si        0.655220246997534    0.755996913229303    0.678752176470497  0.0000
  Si     Si        0.346482442909180    0.331101704013933    0.239001867062789  0.0000
  O1     O1        0.124212632779927    0.136234576943374    0.337811545774844  0.0000
  O3     O3        0.387688006458214    0.861378077792613    0.352376210609958  0.0000
  O1     O1        0.869420817017966    0.186199348607851    0.578827063852631  0.0000
  O2     O2        0.605684898577132    0.895560050435273    0.593300473812556  0.0000
  O1     O1        0.890650505765458    0.840297587807388    0.578190049644886  0.0000
  O3     O3        0.582579658832258    0.230910347611162    0.585848299504033  0.0000
  O1     O1        0.090919497537341    0.801150749803939    0.364165381983711  0.0000
  O2     O2        0.402992526815180    0.196681865857735    0.312749257869235  0.0000
  O1     O1        0.019375090448945    0.039726570041201    0.526700241333391  0.0000
  O2     O2        0.473647151191818    0.030447774648624    0.506989361190759  0.0000
  O1     O1        0.970448863175892    0.022915164161239    0.279501778526522  0.0000
  O3     O3        0.516147631602089    0.995162479474586    0.268608429249239  0.0000
  O1     O1        0.960183646905491    0.047725643145588    0.769780810239003  0.0000
  O3     O3        0.514228367884451    0.030273113668920    0.752883957826901  0.0000
  O1     O1        0.577140685394875    0.250962446177800    0.096473680547834  0.0000
  O1     O1        0.910054623906430    0.814628637334271    0.080711209467649  0.0000
  O1     O1        0.400514911103900    0.253069220358079    0.833668992590430  0.0000
  O1     O1        0.081600712210686    0.843667226178411    0.854044410682648  0.0000
  O1     O1        0.368298306793568    0.904867965630151    0.833016038722761  0.0000
  O1     O1        0.104245410289670    0.195240746383650    0.833333681564153  0.0000
  O1     O1        0.619253266519406    0.915546562188340    0.078135739907561  0.0000
  O1     O1        0.864137325204900    0.155665713620884    0.098641548774555  0.0000
  O1     O1        0.469696849736376    0.011904751008678    0.009374709467169  0.0000
  O1     O1        0.013069920002271    0.071020369455281    0.025562674623685  0.0000
  O1     O1        0.153854509578343    0.484480928885069    0.318879221023236  0.0000
  O3     O3        0.347644073011907    0.514949474529124    0.303346461104297  0.0000
  O1     O1        0.830146782104559    0.516477496529227    0.613306338487122  0.0000
  O3     O3        0.641915475402587    0.568317801563597    0.623877515728753  0.0000
  O3     O3        0.263669302694402    0.251934998807645    0.243559295926328  0.0000
  O1     O1        0.241331267623848    0.774055321307768    0.272290181083498  0.0000
  O1     O1        0.725857592391329    0.271616448755748    0.685528439856341  0.0000
  O3     O3        0.742594549890629    0.803439013778303    0.670139371489158  0.0000
  O1     O1        0.133621390578784    0.299827186118234    0.091001256122609  0.0000
  O1     O1        0.360874844179878    0.759407363208416    0.095651999128388  0.0000
  O1     O1        0.853122313666062    0.298954784456051    0.840129318999051  0.0000
  O3     O3        0.632194209343512    0.754746355774269    0.830489135428383  0.0000
  O1     O1        0.867374061818075    0.706766572546774    0.830521498473705  0.0000
  O1     O1        0.603035994767531    0.359457590276565    0.840105909086454  0.0000
  O1     O1        0.116299961534381    0.711616705330464    0.108308891538295  0.0000
  O3     O3        0.370999978733244    0.355531908903678    0.088912348140114  0.0000
  O1     O1        0.647565391682390    0.563908380302688    0.056275453066013  0.0000
  O1     O1        0.836016415078866    0.504711195057666    0.054298416110752  0.0000
  O1     O1        0.330340256688826    0.567756277749143    0.873047415724463  0.0000
  O1     O1        0.151229870077714    0.528339825590684    0.880983972191403  0.0000
  O1     O1        0.725246055677631    0.266613539284575    0.996669160320945  0.0000
  O1     O1        0.757565525540044    0.810176775639734    0.000166065215957  0.0000
  O1     O1        0.253105448532454    0.261830262362662    0.918365378118257  0.0000
  O1     O1        0.230529044915972    0.820802651199992    0.948946136386613  0.0000
