data_c01355.vasp
_audit_creation_method             Generated by GULP
_audit_author_name                 Salvador R. G. Balestra
_symmetry_space_group_name_H-M     'P 1             '
_symmetry_Int_Tables_number        1

loop_
_symmetry_equiv_pos_site_id
_symmetry_equiv_pos_as_xyz
_cell_length_a                       17.6075
_cell_length_b                        7.8053
_cell_length_c                       10.1963
_cell_angle_alpha                   89.9996
_cell_angle_beta                    89.9998
_cell_angle_gamma                   90.9957

loop_
_atom_site_label
_atom_site_type_symbol
_atom_site_fract_x
_atom_site_fract_y
_atom_site_fract_z
_atom_site_charge
  Ge     Ge        0.052090000000021    0.000000000000000    0.372269999999958  0.0000
  Ge     Ge        0.552089936622544    0.000000221753424    0.635712999983566  0.0000
  Ge     Ge        0.551227349527908    0.008517547137161    0.143449163147168  0.0000
  Ge     Ge        0.945417918235026    0.067140306140358    0.118078247969431  0.0000
  Ge     Ge        0.445421256305530    0.067154137806456    0.889907467043356  0.0000
  Ge     Ge        0.051226986692168    0.008526960341747    0.864535368919407  0.0000
  Ge     Ge        0.174948067096259    0.281482433196539    0.286350632974657  0.0000
  Ge     Ge        0.330714378529290    0.763850019079779    0.287087036859053  0.0000
  Ge     Ge        0.856348953995041    0.359762944654012    0.734664949115901  0.0000
  Ge     Ge        0.650639246260185    0.687245065200850    0.709907558534224  0.0000
  Ge     Ge        0.830712313844966    0.763849170400742    0.720899411549328  0.0000
  Ge     Ge        0.674945876291853    0.281481141063163    0.721635115334112  0.0000
  Ge     Ge        0.150639808721411    0.687246832616725    0.298076111135833  0.0000
  Ge     Ge        0.356350836502247    0.359765640875046    0.273319239264439  0.0000
  Ge     Ge        0.668855705642516    0.302423583428340    0.037382579641425  0.0000
  Ge     Ge        0.822112074232577    0.781829806394306    0.039280970429900  0.0000
  Ge     Ge        0.349002015936129    0.382721578506340    0.954923889005538  0.0000
  Ge     Ge        0.322116505076417    0.781840625067024    0.968708814493874  0.0000
  Ge     Ge        0.168858425207051    0.302433843433126    0.970601136164348  0.0000
  Ge     Ge        0.849001666906892    0.382712137274058    0.053056163591695  0.0000
  Si     Si        0.448350394392883    0.048086065557019    0.389400438750074  0.0000
  Si     Si        0.948350725926770    0.048087922518849    0.618582556020145  0.0000
  Si     Si        0.145797608675429    0.702225649050217    0.985647222772329  0.0000
  Si     Si        0.645792442769307    0.702211843420103    0.022340177680498  0.0000
  O1     O1        0.127752681944045    0.140365398530499    0.386504646920540  0.0000
  O3     O3        0.378138223778247    0.916190797263496    0.379629949073747  0.0000
  O3     O3        0.924790353055773    0.238964906284031    0.658500320049990  0.0000
  O1     O1        0.585298988321953    0.796007021726399    0.619033067301212  0.0000
  O3     O3        0.878140797273881    0.916184838150343    0.628357036399849  0.0000
  O1     O1        0.627752532391601    0.140366651512457    0.621477966796389  0.0000
  O1     O1        0.085300154484887    0.796007890513826    0.388952179021840  0.0000
  O3     O3        0.424794124505182    0.238964180456999    0.349476911216609  0.0000
  O3     O3        0.975747833467578    0.049944629129870    0.467991100093193  0.0000
  O3     O3        0.475748291479975    0.049946227573992    0.539990967483541  0.0000
  O1     O1        0.020218450586778    0.015896257552358    0.212381782158456  0.0000
  O3     O3        0.519908972958060    0.987040072786752    0.304213798973943  0.0000
  O3     O3        0.019911491624947    0.987053636951648    0.703769183482463  0.0000
  O1     O1        0.520218604473988    0.015897595473058    0.795601259894839  0.0000
  O1     O1        0.620653109798343    0.165069819841078    0.139047717350314  0.0000
  O1     O1        0.867733903052038    0.930062296051226    0.133479195732153  0.0000
  O1     O1        0.412106856275941    0.270230388607312    0.862714293558682  0.0000
  O3     O3        0.082826740711295    0.807823344742765    0.909458273422809  0.0000
  O1     O1        0.367736659365222    0.930078220215172    0.874511533900046  0.0000
  O1     O1        0.120645021349450    0.165097551496356    0.868938185347863  0.0000
  O3     O3        0.582817513247322    0.807810334197356    0.098518632755577  0.0000
  O1     O1        0.912103100751629    0.270216405334199    0.145269521494390  0.0000
  O1     O1        0.474649792849091    0.061920564671789    0.051593232258894  0.0000
  O1     O1        0.974643563455513    0.061897511398505    0.956390482792791  0.0000
  O1     O1        0.161734505918042    0.483352248563793    0.351370262417019  0.0000
  O1     O1        0.347612327425617    0.559450566633608    0.342998292538520  0.0000
  O1     O1        0.847608884539462    0.559449578704139    0.664988650416832  0.0000
  O1     O1        0.661733854456406    0.483351419430487    0.656613091825151  0.0000
  O1     O1        0.270885047209234    0.248939570445864    0.279988145832721  0.0000
  O1     O1        0.235304162143596    0.799759112274192    0.301440521014192  0.0000
  O1     O1        0.770882962514582    0.248937603388791    0.728001162770059  0.0000
  O1     O1        0.735302386678606    0.799761979011247    0.706540982109925  0.0000
  O1     O1        0.138725098446335    0.268278747414024    0.129103613220805  0.0000
  O1     O1        0.357609123816477    0.785961898752964    0.126112857428829  0.0000
  O1     O1        0.881245010962544    0.398375394093132    0.893574965437939  0.0000
  O3     O3        0.620991959731918    0.674848170259380    0.872288633610328  0.0000
  O1     O1        0.857602697482673    0.785954476339904    0.881875413393508  0.0000
  O1     O1        0.638720362999339    0.268272731763570    0.878880833651354  0.0000
  O3     O3        0.120989802919909    0.674861134669621    0.135696019383489  0.0000
  O1     O1        0.381240880147899    0.398385278428617    0.114407332870007  0.0000
  O3     O3        0.656084189283105    0.514953725034999    0.084500578283266  0.0000
  O1     O1        0.837495746517070    0.584914068666538    0.110651301965224  0.0000
  O1     O1        0.337497648325058    0.584927502212110    0.897333353962535  0.0000
  O3     O3        0.156094589143602    0.514970342549161    0.923489037627113  0.0000
  O1     O1        0.764255733630677    0.268504188470768    0.046354101264248  0.0000
  O3     O3        0.724873215716281    0.810618145201525    0.028514200678318  0.0000
  O1     O1        0.264257644758098    0.268505806090556    0.961617395725714  0.0000
  O3     O3        0.224878130983136    0.810633567220009    0.979483299965504  0.0000
