data_c01349.vasp
_audit_creation_method             Generated by GULP
_audit_author_name                 Salvador R. G. Balestra
_symmetry_space_group_name_H-M     'P 1             '
_symmetry_Int_Tables_number        1

loop_
_symmetry_equiv_pos_site_id
_symmetry_equiv_pos_as_xyz
_cell_length_a                       17.4441
_cell_length_b                        7.8214
_cell_length_c                       10.2953
_cell_angle_alpha                   90.1481
_cell_angle_beta                    89.8458
_cell_angle_gamma                   88.0637

loop_
_atom_site_label
_atom_site_type_symbol
_atom_site_fract_x
_atom_site_fract_y
_atom_site_fract_z
_atom_site_charge
  Ge     Ge        0.052090000000021    0.000000000000000    0.372269999999958  0.0000
  Ge     Ge        0.945480967910366    0.941930247301741    0.622067268978180  0.0000
  Ge     Ge        0.941879938580912    0.944431246113808    0.128096182844386  0.0000
  Ge     Ge        0.048164900262910    0.005112549890763    0.876941339302311  0.0000
  Ge     Ge        0.146679792508372    0.311077983767437    0.255469880770071  0.0000
  Ge     Ge        0.359176072860688    0.629382903210060    0.256441566248794  0.0000
  Ge     Ge        0.820460510187484    0.228246172388744    0.697359428536184  0.0000
  Ge     Ge        0.663332168756607    0.714512717997984    0.694626495617687  0.0000
  Ge     Ge        0.846052394400263    0.630304570539885    0.691268746930183  0.0000
  Ge     Ge        0.637071032455409    0.311120377171119    0.695755687342932  0.0000
  Ge     Ge        0.174824629935484    0.711508946980537    0.257886214645198  0.0000
  Ge     Ge        0.330238721818009    0.227629914425362    0.259047437346188  0.0000
  Ge     Ge        0.636135732425870    0.315598228128364    0.008464869152179  0.0000
  Ge     Ge        0.847537659215192    0.634111892316511    0.008166214246233  0.0000
  Ge     Ge        0.333209624231960    0.227367576687822    0.942980437179650  0.0000
  Ge     Ge        0.174467311426719    0.714829825100600    0.944796506965488  0.0000
  Ge     Ge        0.357504956019166    0.631492061070845    0.943436493680210  0.0000
  Ge     Ge        0.151041829706354    0.312951857160325    0.937420176031491  0.0000
  Ge     Ge        0.663994319768149    0.718626497557074    0.010888730752616  0.0000
  Ge     Ge        0.820050261451551    0.231458858380337    0.011293093689758  0.0000
  Si     Si        0.446202061646757    0.942160835750185    0.361613455012587  0.0000
  Si     Si        0.548063892590036    0.999295328219860    0.607447378207928  0.0000
  Si     Si        0.547260263101725    0.005495952500969    0.113272314785151  0.0000
  Si     Si        0.450760747358546    0.937617525706311    0.859600860608478  0.0000
  O1     O1        0.077490020898353    0.204881066055310    0.337824730690085  0.0000
  O3     O3        0.423030477153161    0.747445721293771    0.345650501968466  0.0000
  O1     O1        0.869938931476518    0.086203623242022    0.600062723279630  0.0000
  O3     O3        0.618442624432823    0.863480593790230    0.593960878093511  0.0000
  O1     O1        0.911529874545616    0.740114839930185    0.602162119593654  0.0000
  O3     O3        0.576168593885449    0.191231464229893    0.600929924597422  0.0000
  O1     O1        0.130297754300661    0.865084068694496    0.351704361977756  0.0000
  O3     O3        0.372426443103012    0.068041962878393    0.352450913365583  0.0000
  O1     O1        0.024181471629224    0.986226384407543    0.532794588641851  0.0000
  O2     O2        0.483047615520133    0.965843169263686    0.502735211594064  0.0000
  O1     O1        0.972470926022183    0.943520989110170    0.286685665627124  0.0000
  O2     O2        0.507957456636442    0.993869982976231    0.253427490923694  0.0000
  O1     O1        0.971761207061282    0.960721123893932    0.783810314347104  0.0000
  O2     O2        0.514893418643011    0.967259994732277    0.752112556701988  0.0000
  O3     O3        0.571254907903898    0.199832973639814    0.096608844218526  0.0000
  O1     O1        0.916068833878657    0.739815826051127    0.091028049244113  0.0000
  O3     O3        0.382142546469380    0.078360525832964    0.847519145486880  0.0000
  O1     O1        0.122990055844242    0.858028181021963    0.853524539197240  0.0000
  O3     O3        0.419187790150958    0.748309958729723    0.848622966127466  0.0000
  O1     O1        0.085101509845695    0.203858435029059    0.850492573020059  0.0000
  O3     O3        0.620464022870507    0.876467948864394    0.105536705461049  0.0000
  O1     O1        0.863823817575900    0.081755348303860    0.108598230346497  0.0000
  O2     O2        0.487036683481050    0.953245251738703    0.003088415131148  0.0000
  O1     O1        0.018470040794187    0.005229346152069    0.037125498705322  0.0000
  O1     O1        0.157473912538686    0.511722218096697    0.319140476985885  0.0000
  O1     O1        0.348890026608266    0.428539361726371    0.318862922376673  0.0000
  O1     O1        0.833839756674721    0.429344918774503    0.633233400173881  0.0000
  O1     O1        0.647741904824978    0.511605789405328    0.634769822685247  0.0000
  O1     O1        0.233373138820563    0.198917338612140    0.262146063003254  0.0000
  O1     O1        0.271896371923436    0.737477335858421    0.254112717459142  0.0000
  O1     O1        0.723661949741533    0.198792211063490    0.701363379966946  0.0000
  O1     O1        0.760004195915028    0.746024996884476    0.692290195019473  0.0000
  O1     O1        0.120961172325994    0.335648559033101    0.096199886246756  0.0000
  O1     O1        0.391282385343526    0.609727481130525    0.099344728644984  0.0000
  O1     O1        0.854348306014558    0.214329476233730    0.854581214124585  0.0000
  O1     O1        0.632630726538421    0.727895580569929    0.853133521938871  0.0000
  O1     O1        0.876427756062369    0.611827423691498    0.849500505219114  0.0000
  O1     O1        0.603183945326488    0.332729981115909    0.851716884954611  0.0000
  O1     O1        0.140167040240986    0.728115304495821    0.101941506799544  0.0000
  O1     O1        0.362735334234766    0.215415990607581    0.101704969798797  0.0000
  O1     O1        0.645573700184949    0.517330921419643    0.070133003320767  0.0000
  O1     O1        0.836286069777282    0.433417778724689    0.070356355902064  0.0000
  O1     O1        0.347847190091616    0.430065246937757    0.882721294469316  0.0000
  O1     O1        0.163263292521237    0.513578484106930    0.878895820062594  0.0000
  O1     O1        0.722819505938934    0.205788786571936    0.007046139832604  0.0000
  O1     O1        0.760917525978975    0.746928904122329    0.013900568952961  0.0000
  O1     O1        0.236691719571213    0.195242024279159    0.937913356875920  0.0000
  O1     O1        0.271328605617513    0.745200995045055    0.948439191369410  0.0000
