data_c01397.vasp
_audit_creation_method             Generated by GULP
_audit_author_name                 Salvador R. G. Balestra
_symmetry_space_group_name_H-M     'P 1             '
_symmetry_Int_Tables_number        1

loop_
_symmetry_equiv_pos_site_id
_symmetry_equiv_pos_as_xyz
_cell_length_a                       17.6922
_cell_length_b                        7.8753
_cell_length_c                       10.3329
_cell_angle_alpha                   89.5119
_cell_angle_beta                    89.5373
_cell_angle_gamma                   90.5553

loop_
_atom_site_label
_atom_site_type_symbol
_atom_site_fract_x
_atom_site_fract_y
_atom_site_fract_z
_atom_site_charge
  Ge     Ge        0.052090000000021    0.000000000000000    0.372269999999958  0.0000
  Ge     Ge        0.550042086555472    0.966169163697330    0.583951253270435  0.0000
  Ge     Ge        0.546386620191125    0.975479984642707    0.078423756683892  0.0000
  Ge     Ge        0.944650895040546    0.006573692533547    0.122813763819572  0.0000
  Ge     Ge        0.052818245162020    0.006053770566939    0.869016635731632  0.0000
  Ge     Ge        0.155245513378135    0.309653446342084    0.254398996229538  0.0000
  Ge     Ge        0.351566132454040    0.675145568256256    0.257298172977204  0.0000
  Ge     Ge        0.852763067495713    0.311070793408388    0.696494002252154  0.0000
  Ge     Ge        0.650931130476808    0.657842656186426    0.684455412991355  0.0000
  Ge     Ge        0.832917784064042    0.715072156836357    0.689297257372136  0.0000
  Ge     Ge        0.670974743552037    0.253994737792114    0.695701967772802  0.0000
  Ge     Ge        0.171076910583063    0.718162651231613    0.257339755264173  0.0000
  Ge     Ge        0.336958087565267    0.267633416599844    0.254300795965511  0.0000
  Ge     Ge        0.669708759639617    0.258011512490975    0.010103222824857  0.0000
  Ge     Ge        0.825636337073111    0.724232183451918    0.003893853167199  0.0000
  Ge     Ge        0.338168656514186    0.285786614454824    0.940802019783865  0.0000
  Ge     Ge        0.171614860957543    0.723910336968167    0.944370745965867  0.0000
  Ge     Ge        0.154698872456048    0.321122149682475    0.938582238731424  0.0000
  Ge     Ge        0.645029896033008    0.660220429611062    0.000038136980073  0.0000
  Ge     Ge        0.850759188733393    0.320589118203974    0.011302231826575  0.0000
  Si     Si        0.447729019255747    0.984070949082056    0.334928751549106  0.0000
  Si     Si        0.949385669605321    0.001881711026681    0.622274320247290  0.0000
  Si     Si        0.444208068188121    0.994070345838591    0.831746022106151  0.0000
  Si     Si        0.351190180507238    0.684406439323317    0.951250848347144  0.0000
  O1     O1        0.090977736803292    0.197002479781804    0.345072474919107  0.0000
  O3     O3        0.411624916589738    0.796549184825734    0.350745537499874  0.0000
  O3     O3        0.913441744964889    0.187375558025644    0.605578147318922  0.0000
  O1     O1        0.587357179699064    0.767538841810453    0.592532572071321  0.0000
  O3     O3        0.885964549295061    0.858171675388900    0.597542224507504  0.0000
  O1     O1        0.621780971072958    0.108803959326842    0.607576545839752  0.0000
  O1     O1        0.119942157369076    0.848950452192410    0.354132160291167  0.0000
  O3     O3        0.385179633503470    0.128853581129946    0.353596488607448  0.0000
  O3     O3        0.022029948915667    0.983948046942266    0.532040355755194  0.0000
  O3     O3        0.517717379640763    0.004957243864174    0.428644867279615  0.0000
  O1     O1        0.974308128554732    0.970709855656618    0.277936432039291  0.0000
  O3     O3        0.474353305926797    0.007026831576367    0.185740925781217  0.0000
  O3     O3        0.976652762661280    0.977101794866057    0.770373365806712  0.0000
  O3     O3        0.472579139103531    0.987904152989072    0.684886035100762  0.0000
  O1     O1        0.619907603101702    0.116038130574166    0.102906065345771  0.0000
  O1     O1        0.869576392568605    0.872847068294526    0.095535911150018  0.0000
  O3     O3        0.386980888804523    0.150465724823311    0.841423425816094  0.0000
  O1     O1        0.126176369712589    0.865309504691064    0.848527022676383  0.0000
  O2     O2        0.405163878339452    0.813774476215878    0.871281234863178  0.0000
  O1     O1        0.092285523630725    0.204407204161499    0.849674135918847  0.0000
  O1     O1        0.580616783789954    0.773426307723127    0.087754570638110  0.0000
  O1     O1        0.915029055189095    0.212417424557054    0.101901751913589  0.0000
  O3     O3        0.515684263426252    0.022426050576729    0.923052177427257  0.0000
  O1     O1        0.020538193355938    0.968292764414447    0.023845689121392  0.0000
  O1     O1        0.163502510136877    0.511580805115487    0.311890927660819  0.0000
  O1     O1        0.347734083205063    0.470998189879142    0.313332623493431  0.0000
  O1     O1        0.847246538037542    0.511849658087142    0.633024253258668  0.0000
  O1     O1        0.660338354902301    0.454629569837265    0.630393179208383  0.0000
  O1     O1        0.242704830458456    0.215232438362208    0.255980370235827  0.0000
  O1     O1        0.265226070449317    0.771123687743391    0.261492526210645  0.0000
  O1     O1        0.765918671578636    0.211305345233773    0.696490617286760  0.0000
  O1     O1        0.738323812465620    0.757676538385920    0.679540064273158  0.0000
  O1     O1        0.124255118879123    0.314630827792554    0.097321551939324  0.0000
  O3     O3        0.382090703424081    0.669517482560476    0.096705078902086  0.0000
  O1     O1        0.883281951304043    0.323731822583463    0.853493469513480  0.0000
  O1     O1        0.617404754170716    0.654001707081585    0.840999247749859  0.0000
  O1     O1        0.860146861035581    0.722943466128882    0.848041608934466  0.0000
  O1     O1        0.639297561228108    0.252766596434880    0.852388516397012  0.0000
  O1     O1        0.138657375354094    0.730925894323702    0.101430855033428  0.0000
  O1     O1        0.368888880774148    0.265488744489338    0.096536736004543  0.0000
  O1     O1        0.654954223875614    0.462007598094889    0.064571897059170  0.0000
  O1     O1        0.840042721110695    0.523033275231592    0.066609987228124  0.0000
  O3     O3        0.349885432978466    0.497247375888747    0.890420187258209  0.0000
  O1     O1        0.156899990776586    0.525068187360688    0.882281832770997  0.0000
  O1     O1        0.764516032268935    0.217262373966804    0.014565324948124  0.0000
  O1     O1        0.730946129497306    0.765362810684605    0.000112258417919  0.0000
  O1     O1        0.244034742809327    0.236531634055885    0.933705215082705  0.0000
  O3     O3        0.267838174322209    0.762555095564947    0.953462990237534  0.0000
