data_c01336.vasp
_audit_creation_method             Generated by GULP
_audit_author_name                 Salvador R. G. Balestra
_symmetry_space_group_name_H-M     'P 1             '
_symmetry_Int_Tables_number        1

loop_
_symmetry_equiv_pos_site_id
_symmetry_equiv_pos_as_xyz
_cell_length_a                       17.4909
_cell_length_b                        7.8349
_cell_length_c                       10.2118
_cell_angle_alpha                   90.1899
_cell_angle_beta                    91.6894
_cell_angle_gamma                   91.9665

loop_
_atom_site_label
_atom_site_type_symbol
_atom_site_fract_x
_atom_site_fract_y
_atom_site_fract_z
_atom_site_charge
  Ge     Ge        0.052090000000021    0.000000000000000    0.372269999999958  0.0000
  Ge     Ge        0.940322255290916    0.044098071708221    0.614876850664145  0.0000
  Ge     Ge        0.542342326267111    0.988123139230929    0.077557169800660  0.0000
  Ge     Ge        0.942303129730564    0.053057901264208    0.116545826061938  0.0000
  Ge     Ge        0.435679872770841    0.048100446356378    0.814100354601807  0.0000
  Ge     Ge        0.171152296098345    0.287618892225695    0.257276685599805  0.0000
  Ge     Ge        0.327805098704523    0.770944662572393    0.247173710955287  0.0000
  Ge     Ge        0.837578598043669    0.355651091900492    0.677358437193613  0.0000
  Ge     Ge        0.632486858812178    0.682990586754876    0.687483895794328  0.0000
  Ge     Ge        0.817161125567222    0.754187506335151    0.680551371981313  0.0000
  Ge     Ge        0.144664542805780    0.688292609849141    0.254089475786742  0.0000
  Ge     Ge        0.353940427614255    0.367585552854631    0.247947168226338  0.0000
  Ge     Ge        0.666887391571560    0.277326381783450    0.001496417296563  0.0000
  Ge     Ge        0.819694747643911    0.763588725236654    0.997733962931694  0.0000
  Ge     Ge        0.343008095559901    0.358451142870884    0.931436167043913  0.0000
  Ge     Ge        0.134465658425087    0.677801026891313    0.936989688742086  0.0000
  Ge     Ge        0.316787291171306    0.762461297897468    0.930293796411549  0.0000
  Ge     Ge        0.159638242332233    0.276690170585171    0.941141037068608  0.0000
  Ge     Ge        0.637666469059717    0.678320242314013    0.002245591839671  0.0000
  Ge     Ge        0.847347005607265    0.361222332702013    0.997946466299757  0.0000
  Si     Si        0.445240868782081    0.057715499751430    0.328778899168156  0.0000
  Si     Si        0.543091413802412    0.997543391079139    0.576495439250140  0.0000
  Si     Si        0.039997426263908    0.985945027706107    0.870097511881442  0.0000
  Si     Si        0.657796969844485    0.286895890228427    0.688870942546629  0.0000
  O1     O1        0.128465152841290    0.139799097587799    0.356167865193531  0.0000
  O3     O3        0.375963172948339    0.920330544625668    0.346921373823631  0.0000
  O1     O1        0.900023670429026    0.238723532585884    0.591471028533804  0.0000
  O3     O3        0.570151733764117    0.805944349873178    0.595408408795109  0.0000
  O1     O1        0.867254395819949    0.895756510623990    0.586167374706790  0.0000
  O2     O2        0.611364087205753    0.135405492771917    0.610787910256665  0.0000
  O1     O1        0.080387647426254    0.796650985621060    0.342683481255297  0.0000
  O3     O3        0.417163236315997    0.248965653951254    0.342422303407427  0.0000
  O1     O1        0.020408619356441    0.012716289517089    0.530040008166752  0.0000
  O2     O2        0.518164274930733    0.021745396907321    0.423387575695172  0.0000
  O1     O1        0.974064519105555    0.051396470721532    0.276501934189406  0.0000
  O3     O3        0.469741219500754    0.031991539469681    0.178732522684918  0.0000
  O3     O3        0.967309404665927    0.027755374938457    0.780675617620548  0.0000
  O3     O3        0.468178618073313    0.034188769719843    0.656458546535956  0.0000
  O1     O1        0.617684700964738    0.134716534801983    0.093875064175858  0.0000
  O1     O1        0.864821619528908    0.915084930419933    0.095429694984035  0.0000
  O1     O1        0.405978851620118    0.251929765264983    0.839484865620671  0.0000
  O3     O3        0.070014956944452    0.796311816056009    0.845852540245036  0.0000
  O1     O1        0.358251129477130    0.909652873866624    0.830331601060050  0.0000
  O3     O3        0.108749751930147    0.124975762131576    0.848750783547878  0.0000
  O1     O1        0.576825531842493    0.787304063729976    0.098180848324362  0.0000
  O1     O1        0.917825925038641    0.258565443239823    0.081705053332168  0.0000
  O1     O1        0.509257114333232    0.997573679931514    0.917787852437138  0.0000
  O3     O3        0.017157489631128    0.991656124349336    0.022300161442794  0.0000
  O1     O1        0.158993007759754    0.489728929830286    0.318482801182756  0.0000
  O1     O1        0.346189705490813    0.569633102779571    0.307417830733225  0.0000
  O1     O1        0.830541331584969    0.554962191249964    0.614461905491608  0.0000
  O3     O3        0.639916611192775    0.473488528508175    0.631105772314435  0.0000
  O1     O1        0.267185240011554    0.257346295442153    0.247857824532369  0.0000
  O1     O1        0.231225762905279    0.800742355172530    0.251111668572552  0.0000
  O3     O3        0.747489161623902    0.253667197674928    0.679924936777886  0.0000
  O1     O1        0.720618248667266    0.783841391287429    0.680884023026667  0.0000
  O1     O1        0.131616749495687    0.268695756033695    0.101207979385984  0.0000
  O1     O1        0.355927804206313    0.781267138540767    0.087080426495743  0.0000
  O1     O1        0.870631417343372    0.376789642226167    0.836495274105222  0.0000
  O1     O1        0.600633194679060    0.670736307413354    0.843228523048749  0.0000
  O1     O1        0.851337262778643    0.771823843130848    0.840101511043163  0.0000
  O3     O3        0.633537830839909    0.279650574099445    0.839287279679203  0.0000
  O1     O1        0.108695332803628    0.657907323346746    0.097330524753623  0.0000
  O1     O1        0.381354818146423    0.379427476038076    0.088287188137148  0.0000
  O1     O1        0.652126643138814    0.479665676404047    0.061825405921585  0.0000
  O1     O1        0.836175277496160    0.562125677420771    0.058786320716714  0.0000
  O1     O1        0.329156736224491    0.558925578276725    0.871500930567108  0.0000
  O1     O1        0.141679641974624    0.475992456676364    0.876147059031252  0.0000
  O1     O1        0.762598660066735    0.242303113988532    0.007556812172319  0.0000
  O1     O1        0.723143724118020    0.793328506439391    0.994013877097034  0.0000
  O1     O1        0.256171535847980    0.247298918849696    0.936406279449346  0.0000
  O1     O1        0.220508607604549    0.790521237188274    0.938217063819018  0.0000
