data_c01347.vasp
_audit_creation_method             Generated by GULP
_audit_author_name                 Salvador R. G. Balestra
_symmetry_space_group_name_H-M     'P 1             '
_symmetry_Int_Tables_number        1

loop_
_symmetry_equiv_pos_site_id
_symmetry_equiv_pos_as_xyz
_cell_length_a                       17.4739
_cell_length_b                        7.8264
_cell_length_c                       10.2513
_cell_angle_alpha                   90.5076
_cell_angle_beta                    91.7528
_cell_angle_gamma                   88.1993

loop_
_atom_site_label
_atom_site_type_symbol
_atom_site_fract_x
_atom_site_fract_y
_atom_site_fract_z
_atom_site_charge
  Ge     Ge        0.052090000000021    0.000000000000000    0.372269999999958  0.0000
  Ge     Ge        0.942766659118443    0.940384917403727    0.617607841746858  0.0000
  Ge     Ge        0.548723577504049    0.996504431331000    0.122673281046741  0.0000
  Ge     Ge        0.441725591876903    0.932207935022558    0.861596737314014  0.0000
  Ge     Ge        0.144646407990405    0.312196040359261    0.263513211868429  0.0000
  Ge     Ge        0.356104073465958    0.631836528235383    0.251311602381960  0.0000
  Ge     Ge        0.820176234770416    0.227367423400242    0.693038976815473  0.0000
  Ge     Ge        0.662730864132218    0.710993853029430    0.698848481672804  0.0000
  Ge     Ge        0.845574273533247    0.629256220214564    0.693680496732547  0.0000
  Ge     Ge        0.637947162255931    0.307581416333259    0.693022690481754  0.0000
  Ge     Ge        0.173020904180285    0.711184415906439    0.263604254207811  0.0000
  Ge     Ge        0.328151409678121    0.229346790191251    0.256741691900203  0.0000
  Ge     Ge        0.642663407608097    0.307422580615529    0.010511289865748  0.0000
  Ge     Ge        0.853196016356230    0.627881736526136    0.009274213236482  0.0000
  Ge     Ge        0.319327159001556    0.223471302990552    0.940729149968795  0.0000
  Ge     Ge        0.159941386019581    0.707669911831447    0.947516035336797  0.0000
  Ge     Ge        0.341950543664686    0.626507008087750    0.933870702729271  0.0000
  Ge     Ge        0.137198883244487    0.305045766633762    0.946641587422583  0.0000
  Ge     Ge        0.669774138624623    0.709781894763952    0.014670385714633  0.0000
  Ge     Ge        0.826003036928396    0.224942730182557    0.010916089848544  0.0000
  Si     Si        0.446313356592417    0.943745508374861    0.365455996153599  0.0000
  Si     Si        0.544631511052640    0.995541901638841    0.616341240897916  0.0000
  Si     Si        0.943492171610198    0.937842398860024    0.124019809831804  0.0000
  Si     Si        0.038785255340203    0.997395760466141    0.878675787981407  0.0000
  O1     O1        0.079403680852203    0.205217998216062    0.350829266505270  0.0000
  O3     O3        0.425068904430366    0.749731830681284    0.332756541765010  0.0000
  O1     O1        0.868775450677534    0.087700345962253    0.594326121484343  0.0000
  O3     O3        0.614632113213229    0.859901905162901    0.600449608148439  0.0000
  O1     O1        0.907199049331054    0.739763081883312    0.600794630487154  0.0000
  O3     O3        0.572732949802885    0.187175127042449    0.602897866390706  0.0000
  O1     O1        0.130211550988083    0.865988838241356    0.356762474274279  0.0000
  O3     O3        0.372757305111053    0.069078168392988    0.347829191858582  0.0000
  O1     O1        0.019959890616025    0.977493546928277    0.527788403996356  0.0000
  O2     O2        0.474287558700674    0.955455247157778    0.517388843541071  0.0000
  O3     O3        0.974901217622937    0.947350625504216    0.271725280575165  0.0000
  O3     O3        0.515892432406476    0.001901769653085    0.280040847386882  0.0000
  O3     O3        0.968536689752390    0.962260215016540    0.782834070913385  0.0000
  O3     O3        0.516111666879126    0.971852211934174    0.763385462188127  0.0000
  O1     O1        0.575161836585326    0.201240065807181    0.091518042392107  0.0000
  O3     O3        0.919975019716325    0.743976201168243    0.097048555952726  0.0000
  O1     O1        0.368330427568633    0.082793601714289    0.844339859750667  0.0000
  O3     O3        0.106791179359143    0.856875022724335    0.858003729229066  0.0000
  O1     O1        0.402912342660805    0.734622685757803    0.839118191317286  0.0000
  O3     O3        0.070970460111824    0.185581751403723    0.859490100312926  0.0000
  O1     O1        0.627367711157422    0.860681081370932    0.111858436491852  0.0000
  O3     O3        0.871407033096273    0.068087180329135    0.104590516483887  0.0000
  O1     O1        0.476028455178110    0.932745757927002    0.020822202381315  0.0000
  O2     O2        0.011597889170162    0.989552817366446    0.029165519834771  0.0000
  O1     O1        0.158283367451662    0.512130079258716    0.327365031068276  0.0000
  O1     O1        0.348869640999476    0.430654683134786    0.315117597051789  0.0000
  O1     O1        0.831375006000701    0.429848111405426    0.632037426946901  0.0000
  O1     O1        0.646410590846090    0.509408340857118    0.634532436654439  0.0000
  O1     O1        0.231462252112424    0.201604223735954    0.262032356040145  0.0000
  O1     O1        0.269502807666845    0.740815985756847    0.259198066052003  0.0000
  O1     O1        0.723783941871436    0.193765954655148    0.692540636352878  0.0000
  O1     O1        0.759247973737050    0.742964321462330    0.699318973215358  0.0000
  O1     O1        0.110972509960835    0.332742265270948    0.105413625476706  0.0000
  O1     O1        0.378999694738746    0.606951176950830    0.091196938341375  0.0000
  O1     O1        0.854099942772609    0.215095570965179    0.852373785182283  0.0000
  O1     O1        0.632680771438612    0.724543893113411    0.857036431001164  0.0000
  O1     O1        0.881384056946036    0.607800167698317    0.851130669711784  0.0000
  O1     O1        0.610285057872691    0.329149892370914    0.851237765883863  0.0000
  O1     O1        0.134486189946671    0.719087516740647    0.107636866959921  0.0000
  O1     O1        0.356862215405533    0.211658234989504    0.098181423323205  0.0000
  O1     O1        0.654934561009441    0.508353705148496    0.073651239910411  0.0000
  O1     O1        0.845302666879454    0.426497209261644    0.071483349984188  0.0000
  O1     O1        0.327775031674573    0.425004818935042    0.876457736428884  0.0000
  O1     O1        0.144288111513005    0.505446473302881    0.883947852406829  0.0000
  O1     O1        0.729157544342595    0.195679277630773    0.014595158925523  0.0000
  O1     O1        0.766532520512291    0.737092727465882    0.010543381868370  0.0000
  O1     O1        0.222962450424907    0.190510454996166    0.945915279470944  0.0000
  O1     O1        0.256124584229649    0.741695441221365    0.940074271415136  0.0000
