data_c01311.vasp
_audit_creation_method             Generated by GULP
_audit_author_name                 Salvador R. G. Balestra
_symmetry_space_group_name_H-M     'P 1             '
_symmetry_Int_Tables_number        1

loop_
_symmetry_equiv_pos_site_id
_symmetry_equiv_pos_as_xyz
_cell_length_a                       17.6036
_cell_length_b                        7.8292
_cell_length_c                       10.1403
_cell_angle_alpha                   89.6521
_cell_angle_beta                    91.4095
_cell_angle_gamma                   88.3009

loop_
_atom_site_label
_atom_site_type_symbol
_atom_site_fract_x
_atom_site_fract_y
_atom_site_fract_z
_atom_site_charge
  Ge     Ge        0.052090000000021    0.000000000000000    0.372269999999958  0.0000
  Ge     Ge        0.938958202735906    0.945991331076524    0.609988786671569  0.0000
  Ge     Ge        0.550406112249262    0.007338545362844    0.074565439591983  0.0000
  Ge     Ge        0.940229883827973    0.943241689826574    0.122081682618983  0.0000
  Ge     Ge        0.441257722634307    0.948408087681394    0.818134948144688  0.0000
  Ge     Ge        0.040601839071361    0.011614839092802    0.868535503321372  0.0000
  Ge     Ge        0.147531372440403    0.312932363927571    0.256064348238875  0.0000
  Ge     Ge        0.354194743325886    0.639150470885760    0.248492149720048  0.0000
  Ge     Ge        0.815862552191217    0.231626695053625    0.679187332839589  0.0000
  Ge     Ge        0.658731508579592    0.715401473095794    0.682380408053321  0.0000
  Ge     Ge        0.840172278615147    0.633958824569234    0.676881354415467  0.0000
  Ge     Ge        0.634925710816902    0.309340430001978    0.687187605362115  0.0000
  Ge     Ge        0.170808777598070    0.712546270027839    0.255546993336758  0.0000
  Ge     Ge        0.848391885412896    0.630951139834446    0.998970516629622  0.0000
  Ge     Ge        0.318869080671882    0.236799970030289    0.934012662635435  0.0000
  Ge     Ge        0.167117909621717    0.723842076721945    0.937525799256328  0.0000
  Ge     Ge        0.348417154064752    0.638814616674082    0.932608052152719  0.0000
  Ge     Ge        0.140271560197096    0.321781944439746    0.931878555703254  0.0000
  Ge     Ge        0.666956447409658    0.710640602671965    0.001313717883219  0.0000
  Ge     Ge        0.819971696617028    0.230441062748837    0.999222012088193  0.0000
  Si     Si        0.443420329113433    0.958963879507353    0.318694229671012  0.0000
  Si     Si        0.540955051944678    0.004847087287176    0.571413000287010  0.0000
  Si     Si        0.326548809220658    0.246636699365656    0.250143768379078  0.0000
  Si     Si        0.643188525830035    0.316083560515575    0.999457536338086  0.0000
  O1     O1        0.082828909032359    0.201835290975069    0.342101482864371  0.0000
  O3     O3        0.413930522638276    0.769380010913642    0.340295493255922  0.0000
  O1     O1        0.865835624548693    0.093633219338052    0.581727790987576  0.0000
  O3     O3        0.611037615018790    0.870727862257169    0.588845914548050  0.0000
  O1     O1        0.903332673343170    0.746645006348868    0.586475029984729  0.0000
  O3     O3        0.566197663800511    0.195235783270004    0.605629503916854  0.0000
  O1     O1        0.127790854470106    0.862274137099192    0.352608460386800  0.0000
  O2     O2        0.374369151111951    0.099679214641694    0.331913035605795  0.0000
  O1     O1        0.020924856683942    0.987498008375150    0.532004275433657  0.0000
  O2     O2        0.512974255297151    0.000376357951972    0.417912365555113  0.0000
  O1     O1        0.971338947421429    0.949128846045899    0.283809872596730  0.0000
  O3     O3        0.473689581227889    0.976514242112434    0.170998215774982  0.0000
  O1     O1        0.963116372120170    0.961953319520868    0.776599990561367  0.0000
  O3     O3        0.469430654010406    0.955678153102762    0.656253303536437  0.0000
  O3     O3        0.588024189001499    0.209217346316191    0.090026483630555  0.0000
  O1     O1        0.916575830151609    0.737002648538601    0.085268577877193  0.0000
  O1     O1        0.365482555266558    0.085809112233646    0.845215088749655  0.0000
  O1     O1        0.115648735745085    0.869498706005069    0.844758138841171  0.0000
  O1     O1        0.412350241946123    0.743390888157075    0.840662114609165  0.0000
  O1     O1        0.072658192573682    0.215098665365496    0.843992392501884  0.0000
  O1     O1        0.619185386198781    0.849762104828941    0.100929331442784  0.0000
  O1     O1        0.860924756412117    0.074494213936539    0.097024539640269  0.0000
  O1     O1        0.517929749838435    0.998703337093217    0.913840995462764  0.0000
  O1     O1        0.014798286206688    0.008222172390821    0.032038012988346  0.0000
  O1     O1        0.154388965814765    0.513730216495737    0.319854773782827  0.0000
  O3     O3        0.345392988439999    0.432849227979613    0.308952972284606  0.0000
  O1     O1        0.827476771824246    0.434552647686024    0.616268995453400  0.0000
  O1     O1        0.641761752391813    0.512510748388711    0.624914094894474  0.0000
  O3     O3        0.237465772549888    0.212928442926451    0.260999064893648  0.0000
  O1     O1        0.266530786321057    0.739658392394198    0.248381889160886  0.0000
  O1     O1        0.719956671173397    0.197920748020517    0.676663473744951  0.0000
  O1     O1        0.754548665462422    0.747254625594847    0.677686240487354  0.0000
  O1     O1        0.116837504376965    0.334851620149361    0.095682557632199  0.0000
  O1     O1        0.385848626506168    0.628494847263207    0.091223061439262  0.0000
  O1     O1        0.850473067060631    0.215899245056653    0.839710418825322  0.0000
  O1     O1        0.630903667304083    0.733786780764368    0.842871947808551  0.0000
  O1     O1        0.873395692909189    0.612689301805583    0.837164168160177  0.0000
  O3     O3        0.610131002713517    0.336970791367443    0.850193040689261  0.0000
  O1     O1        0.134752398203991    0.732929960110417    0.096875115977802  0.0000
  O3     O3        0.349701119802580    0.243070484791904    0.097742702668246  0.0000
  O3     O3        0.655968782334612    0.502127830282550    0.058203677054893  0.0000
  O1     O1        0.840858545774119    0.428120735323549    0.061215178079813  0.0000
  O1     O1        0.333867667452457    0.438805052980287    0.872481755593800  0.0000
  O1     O1        0.151695629207495    0.522888212181693    0.873319303826293  0.0000
  O3     O3        0.722516550857450    0.208541290523530    0.991090127726767  0.0000
  O1     O1        0.762562721218445    0.743123881681725    0.004419054550145  0.0000
  O1     O1        0.223822366569245    0.200856059536058    0.926741838777843  0.0000
  O1     O1        0.263002239616988    0.753256107988271    0.937041598650687  0.0000
