data_c01345.vasp
_audit_creation_method             Generated by GULP
_audit_author_name                 Salvador R. G. Balestra
_symmetry_space_group_name_H-M     'P 1             '
_symmetry_Int_Tables_number        1

loop_
_symmetry_equiv_pos_site_id
_symmetry_equiv_pos_as_xyz
_cell_length_a                       17.4349
_cell_length_b                        7.8159
_cell_length_c                       10.4909
_cell_angle_alpha                   89.1576
_cell_angle_beta                    89.9502
_cell_angle_gamma                   89.6271

loop_
_atom_site_label
_atom_site_type_symbol
_atom_site_fract_x
_atom_site_fract_y
_atom_site_fract_z
_atom_site_charge
  Ge     Ge        0.052090000000021    0.000000000000000    0.372269999999958  0.0000
  Ge     Ge        0.946869231085068    0.012329383125317    0.624267979393685  0.0000
  Ge     Ge        0.549984607926620    0.986064703341941    0.145638423377586  0.0000
  Ge     Ge        0.952378169786404    0.997484635020954    0.112868197565494  0.0000
  Ge     Ge        0.061519988316260    0.020918140308311    0.864900112348449  0.0000
  Ge     Ge        0.149119195889793    0.321179784632203    0.288896267047969  0.0000
  Ge     Ge        0.360442467035551    0.662582618205146    0.300855533891824  0.0000
  Ge     Ge        0.850440105135609    0.330820619673609    0.728609752438891  0.0000
  Ge     Ge        0.646251282595277    0.681055033804567    0.731887577347273  0.0000
  Ge     Ge        0.664994922053677    0.274608884800395    0.728580539536732  0.0000
  Ge     Ge        0.176602785258019    0.725519301127538    0.297731498344555  0.0000
  Ge     Ge        0.332824984956347    0.258491067261798    0.293051780532078  0.0000
  Ge     Ge        0.671595141699853    0.257311054232162    0.037578503008295  0.0000
  Ge     Ge        0.823779581315750    0.726268231833592    0.043572612409698  0.0000
  Ge     Ge        0.335587277226236    0.275072391371044    0.981369969290704  0.0000
  Ge     Ge        0.179808787168663    0.740979029775279    0.988869770779128  0.0000
  Ge     Ge        0.363432593744140    0.676079182046387    0.990291555555750  0.0000
  Ge     Ge        0.151541162755332    0.337067838177095    0.980206799285544  0.0000
  Ge     Ge        0.641183223052418    0.664333969434437    0.043058122662977  0.0000
  Ge     Ge        0.855893412356998    0.322493593515567    0.036222471908064  0.0000
  Si     Si        0.447976828760947    0.977358301878935    0.398247030482779  0.0000
  Si     Si        0.549204436314869    0.995717198562802    0.644071402857503  0.0000
  Si     Si        0.449819152699994    0.999749863634879    0.895603164544274  0.0000
  Si     Si        0.827095594696848    0.730022593542162    0.739215997006883  0.0000
  O1     O1        0.084500968771813    0.206444126325504    0.378247077712205  0.0000
  O3     O3        0.424458365279816    0.779928811869861    0.390287851719335  0.0000
  O1     O1        0.912156240003099    0.217586318963417    0.634490863588840  0.0000
  O3     O3        0.587065756004967    0.809142913453941    0.639016416288557  0.0000
  O3     O3        0.874071668692062    0.872287451722240    0.662472179235908  0.0000
  O3     O3        0.615288481590583    0.136096284183333    0.632074518382733  0.0000
  O1     O1        0.129390967776055    0.864804543940668    0.394992760484343  0.0000
  O3     O3        0.372294214576534    0.093348463911256    0.382645901792092  0.0000
  O1     O1        0.975564503704969    0.972170268503652    0.471199374532939  0.0000
  O2     O2        0.486381012352773    0.015860878645082    0.533813658092964  0.0000
  O1     O1        0.021282837332009    0.948436453874898    0.221030784291812  0.0000
  O3     O3        0.508249077087103    0.030538233164246    0.289229740785891  0.0000
  O1     O1        0.029162005206711    0.990287231182312    0.712953280168608  0.0000
  O2     O2        0.508159778193708    0.027490588143517    0.779526620899655  0.0000
  O1     O1        0.631928650011137    0.104736006164952    0.133837630264195  0.0000
  O1     O1        0.873140538024669    0.868739547733087    0.130753775349665  0.0000
  O3     O3        0.375536599475450    0.121530040049709    0.883627995397396  0.0000
  O1     O1        0.142173488338921    0.898624985844769    0.893851506966955  0.0000
  O3     O3        0.425960295646079    0.801833473117249    0.902412630811950  0.0000
  O1     O1        0.087242675112450    0.230685346091559    0.887813159040974  0.0000
  O1     O1        0.572988770008711    0.773828683822081    0.128695264110833  0.0000
  O1     O1        0.921291842960707    0.206425704812589    0.124530275137809  0.0000
  O3     O3        0.489833513130018    0.060002735629624    0.025724344988924  0.0000
  O1     O1        0.988566779380378    0.958115375054756    0.963964116263175  0.0000
  O1     O1        0.128031190168086    0.534847713352744    0.294526622367699  0.0000
  O1     O1        0.381980622941605    0.447842896887064    0.306488585148357  0.0000
  O3     O3        0.841617592569368    0.543026347401995    0.679894186204727  0.0000
  O1     O1        0.648952988013134    0.480100873646958    0.672153536129414  0.0000
  O1     O1        0.240738090198481    0.288650508294571    0.345451920066400  0.0000
  O1     O1        0.268081841938555    0.687280828607883    0.353278965069180  0.0000
  O1     O1        0.761760914749472    0.237088212177664    0.722300853945548  0.0000
  O3     O3        0.736803880234300    0.772224875431707    0.734144719843502  0.0000
  O1     O1        0.143683477823556    0.254894987268758    0.133200821579449  0.0000
  O1     O1        0.370099441287724    0.737819550973045    0.146690256145889  0.0000
  O1     O1        0.887245557736977    0.320004957418581    0.880185675407000  0.0000
  O1     O1        0.613649714001042    0.671770732810585    0.885771828992578  0.0000
  O3     O3        0.853501466013622    0.724906765667198    0.885577322095493  0.0000
  O1     O1        0.636561611078621    0.254828972587316    0.884326376756331  0.0000
  O1     O1        0.185037656453176    0.805499217909238    0.144662605364268  0.0000
  O1     O1        0.328267051495703    0.201667821280305    0.135989623194859  0.0000
  O1     O1        0.652223876507900    0.458987873569722    0.096494501498853  0.0000
  O1     O1        0.843941537311272    0.520919502877081    0.097730288637631  0.0000
  O1     O1        0.386749607876092    0.463018605527523    0.978492566741616  0.0000
  O1     O1        0.129545273876331    0.552333910937902    0.981283654197804  0.0000
  O1     O1        0.768326270952677    0.221923779325979    0.032731781682685  0.0000
  O1     O1        0.727982954056519    0.767688396077220    0.054016153881594  0.0000
  O1     O1        0.244230753807360    0.313839126429359    0.927024526705265  0.0000
  O1     O1        0.271582476725454    0.699972994057012    0.937058103146658  0.0000
