data_c01357.vasp
_audit_creation_method             Generated by GULP
_audit_author_name                 Salvador R. G. Balestra
_symmetry_space_group_name_H-M     'P 1             '
_symmetry_Int_Tables_number        1

loop_
_symmetry_equiv_pos_site_id
_symmetry_equiv_pos_as_xyz
_cell_length_a                       17.5409
_cell_length_b                        7.8485
_cell_length_c                       10.1877
_cell_angle_alpha                   89.7862
_cell_angle_beta                    89.8938
_cell_angle_gamma                   88.3869

loop_
_atom_site_label
_atom_site_type_symbol
_atom_site_fract_x
_atom_site_fract_y
_atom_site_fract_z
_atom_site_charge
  Ge     Ge        0.052090000000021    0.000000000000000    0.372269999999958  0.0000
  Ge     Ge        0.551214150601364    0.989597424967864    0.601087097951412  0.0000
  Ge     Ge        0.550278091543023    0.999252713263700    0.111986488124894  0.0000
  Ge     Ge        0.942586877061087    0.939524455941533    0.125426985353023  0.0000
  Ge     Ge        0.444078697527657    0.943702120641154    0.859308344879480  0.0000
  Ge     Ge        0.050295652229285    0.999704760984462    0.872508271568427  0.0000
  Ge     Ge        0.146561053163458    0.310177085453861    0.254497311962625  0.0000
  Ge     Ge        0.355657773257623    0.642411510946377    0.240093454268430  0.0000
  Ge     Ge        0.832760257706922    0.224647751266554    0.688002929129176  0.0000
  Ge     Ge        0.674785509706397    0.705227239296808    0.678142470064369  0.0000
  Ge     Ge        0.856962357383160    0.626309148796838    0.685150796116215  0.0000
  Ge     Ge        0.650350695673725    0.303196634296378    0.674541954467435  0.0000
  Ge     Ge        0.174111766648285    0.713311588156634    0.252325873787191  0.0000
  Ge     Ge        0.330904120514236    0.238534588653956    0.247401102272318  0.0000
  Ge     Ge        0.641988955559092    0.312322329390260    0.993107365196670  0.0000
  Ge     Ge        0.853758589744833    0.625101288720252    0.003571333255680  0.0000
  Ge     Ge        0.328867889118200    0.247058244616098    0.930422565155084  0.0000
  Ge     Ge        0.145002937985242    0.316656252954809    0.936223720224376  0.0000
  Ge     Ge        0.672375501244838    0.713651359444343    0.996954683216201  0.0000
  Ge     Ge        0.823382076981645    0.225085984281170    0.006345172761430  0.0000
  Si     Si        0.446704079056730    0.948947590960862    0.356508127875534  0.0000
  Si     Si        0.951847218520745    0.937035367100979    0.620542088206644  0.0000
  Si     Si        0.167871436902901    0.708051995861695    0.942034363054465  0.0000
  Si     Si        0.344604742720033    0.638454590146322    0.929062857560828  0.0000
  O1     O1        0.081229648220865    0.204002977327906    0.347133655244934  0.0000
  O3     O3        0.424606964542010    0.758417354165153    0.316581208983723  0.0000
  O3     O3        0.884514337014294    0.077506573035073    0.595812812107018  0.0000
  O1     O1        0.625427268106035    0.845021564292327    0.578823594594795  0.0000
  O3     O3        0.920611151992802    0.749079449723058    0.597479285323423  0.0000
  O1     O1        0.586863374004778    0.189567879415691    0.584156842360226  0.0000
  O1     O1        0.128863219825326    0.866523051925805    0.342835300247766  0.0000
  O3     O3        0.376341726973164    0.081048708920098    0.339013855520804  0.0000
  O3     O3        0.025723918666703    0.976041555149356    0.535954500482364  0.0000
  O3     O3        0.471927254333878    0.951754128835362    0.508022935283051  0.0000
  O1     O1        0.973043864083031    0.948317745383269    0.285014497594058  0.0000
  O3     O3        0.520842278370671    0.002564030491077    0.274506656810615  0.0000
  O3     O3        0.975531876732884    0.948898941455375    0.774164324278747  0.0000
  O1     O1        0.521430367851519    0.961547486394442    0.761626687385571  0.0000
  O1     O1        0.573485901681001    0.205342863360400    0.075844595323818  0.0000
  O1     O1        0.919607597028040    0.732925335391405    0.091429143039685  0.0000
  O1     O1        0.379982271298667    0.110115011478020    0.832935309717044  0.0000
  O3     O3        0.126319794765488    0.852809460854421    0.857160777008081  0.0000
  O3     O3        0.395458132091069    0.754933899905039    0.838165022872147  0.0000
  O1     O1        0.085166788481142    0.198594543026620    0.842589045471317  0.0000
  O1     O1        0.628286932939688    0.865103348365781    0.092573378021942  0.0000
  O1     O1        0.864275701528948    0.072727521426861    0.105060577762584  0.0000
  O1     O1        0.475507902414373    0.936162506499373    0.018987613944484  0.0000
  O1     O1        0.017512800573760    0.003360654659619    0.031003470553008  0.0000
  O1     O1        0.157287670772092    0.513007451549518    0.312372762945702  0.0000
  O1     O1        0.350217526211510    0.440119955731457    0.303445334155841  0.0000
  O1     O1        0.848675758507318    0.425292497609492    0.623783817432652  0.0000
  O1     O1        0.663394311506667    0.503416318544518    0.615057975037304  0.0000
  O1     O1        0.234842256240573    0.207860512227689    0.255605325969463  0.0000
  O1     O1        0.269733915185401    0.748738131555522    0.257275027102339  0.0000
  O1     O1        0.736661136187210    0.191166113426358    0.679696113637708  0.0000
  O1     O1        0.770964709860239    0.737643088155979    0.682150969997845  0.0000
  O1     O1        0.113983172175102    0.318025030398888    0.095993328875330  0.0000
  O3     O3        0.378275424464166    0.619117515311849    0.075590288628903  0.0000
  O1     O1        0.860421346489839    0.212531065150005    0.849670687098974  0.0000
  O1     O1        0.641379829386194    0.723880104045103    0.836965557153992  0.0000
  O1     O1        0.885480388451359    0.600653082290231    0.844947410709434  0.0000
  O1     O1        0.615475018656429    0.326722252264647    0.831293716415653  0.0000
  O3     O3        0.139477753475407    0.720958585357691    0.092342522744652  0.0000
  O1     O1        0.362289321565750    0.221216401503294    0.088235803928154  0.0000
  O1     O1        0.653674497088132    0.511972099477078    0.055360840566655  0.0000
  O1     O1        0.839908142028919    0.425876767759479    0.067088093776893  0.0000
  O3     O3        0.340469715395087    0.451885419606658    0.868781712175555  0.0000
  O3     O3        0.148531721141178    0.524720735627827    0.881663294403642  0.0000
  O1     O1        0.727100857513314    0.197469584054710    0.999194726226767  0.0000
  O1     O1        0.768935058246615    0.740963286316168    0.000798289541732  0.0000
  O1     O1        0.233103407767494    0.215102040852992    0.932289545768577  0.0000
  O2     O2        0.259664480807240    0.725345375403485    0.944705626042750  0.0000
