data_c01351.vasp
_audit_creation_method             Generated by GULP
_audit_author_name                 Salvador R. G. Balestra
_symmetry_space_group_name_H-M     'P 1             '
_symmetry_Int_Tables_number        1

loop_
_symmetry_equiv_pos_site_id
_symmetry_equiv_pos_as_xyz
_cell_length_a                       17.7944
_cell_length_b                        7.8291
_cell_length_c                       10.3325
_cell_angle_alpha                   90.4977
_cell_angle_beta                    89.9158
_cell_angle_gamma                   90.2007

loop_
_atom_site_label
_atom_site_type_symbol
_atom_site_fract_x
_atom_site_fract_y
_atom_site_fract_z
_atom_site_charge
  Ge     Ge        0.052090000000021    0.000000000000000    0.372269999999958  0.0000
  Ge     Ge        0.554540546509095    0.968123591661757    0.638949515308429  0.0000
  Ge     Ge        0.554004138703887    0.961550877853014    0.150105274582349  0.0000
  Ge     Ge        0.947146774474948    0.988227757106989    0.112281393468828  0.0000
  Ge     Ge        0.449069585969558    0.965193117355393    0.895447715880621  0.0000
  Ge     Ge        0.057595248923073    0.988919550852422    0.865339520441268  0.0000
  Ge     Ge        0.155092941735786    0.307934292041118    0.294062581507530  0.0000
  Ge     Ge        0.353113482113739    0.660628916147736    0.283598159154840  0.0000
  Ge     Ge        0.854643856718892    0.306850351174677    0.727021968310131  0.0000
  Ge     Ge        0.656078116678814    0.658979976051120    0.724292705175013  0.0000
  Ge     Ge        0.835978482846927    0.715614331820847    0.734609737282008  0.0000
  Ge     Ge        0.675568712806170    0.248889107764286    0.715757079014423  0.0000
  Ge     Ge        0.173046509911771    0.718760734132763    0.290132794801771  0.0000
  Ge     Ge        0.333856384365046    0.252770729267800    0.286682801629545  0.0000
  Ge     Ge        0.673232258131569    0.238754265240398    0.029691337563326  0.0000
  Ge     Ge        0.829646207933080    0.697761233493609    0.049064537842675  0.0000
  Ge     Ge        0.327311033799016    0.243586642062667    0.971433538147827  0.0000
  Ge     Ge        0.171958583821131    0.702350844035316    0.977980481294043  0.0000
  Ge     Ge        0.351954652016403    0.645847536780231    0.968624005645240  0.0000
  Ge     Ge        0.648898778237991    0.646112786055101    0.041227084546142  0.0000
  Si     Si        0.449919728726067    0.970381378267013    0.394163614798105  0.0000
  Si     Si        0.952505102907719    0.000953904064065    0.622509734888796  0.0000
  Si     Si        0.151745994712037    0.298878048977748    0.985540912271789  0.0000
  Si     Si        0.849641764311961    0.300341436531521    0.034464634745854  0.0000
  O1     O1        0.091883476721154    0.199181084544099    0.386569214292438  0.0000
  O3     O3        0.418723823206140    0.781121195374466    0.366669860502206  0.0000
  O3     O3        0.921907400457119    0.191789594464029    0.644911675206455  0.0000
  O1     O1        0.594780812467860    0.770206251500597    0.629375732799388  0.0000
  O3     O3        0.887706354059695    0.864265346473835    0.651152122689366  0.0000
  O1     O1        0.623683325353852    0.118530160611713    0.616273753095694  0.0000
  O1     O1        0.122144236946573    0.850807648044987    0.388765779696299  0.0000
  O3     O3        0.385518335363849    0.109481710945174    0.374609821283348  0.0000
  O3     O3        0.976533437534509    0.975733086318683    0.473606976844625  0.0000
  O3     O3        0.476924451787146    0.984931228622851    0.541737540586395  0.0000
  O1     O1        0.020172595020997    0.976462217485174    0.216091895258214  0.0000
  O3     O3        0.523378277487427    0.002378561342698    0.306264460891583  0.0000
  O3     O3        0.027705563099348    0.977825740745169    0.706086135083388  0.0000
  O1     O1        0.521486554805648    0.003231094370855    0.793912404016779  0.0000
  O1     O1        0.631787238183907    0.086996191818704    0.122064987997535  0.0000
  O1     O1        0.880861099219477    0.832718744469264    0.144609686509150  0.0000
  O1     O1        0.372734399952900    0.098753915724070    0.877120789543807  0.0000
  O1     O1        0.124486773835502    0.833020287207094    0.876119132751912  0.0000
  O1     O1        0.415331446698443    0.760173826833451    0.879381617718369  0.0000
  O3     O3        0.092458579432454    0.190397040048178    0.902691327917755  0.0000
  O1     O1        0.582817620509375    0.753706778740804    0.129668649604628  0.0000
  O3     O3        0.905155113907890    0.188236819874108    0.119926589740573  0.0000
  O1     O1        0.480954969851682    0.007327733743088    0.050162192193736  0.0000
  O1     O1        0.981012000785382    0.948877734503701    0.959098122624089  0.0000
  O1     O1        0.163980592897107    0.513086652295699    0.346489341878184  0.0000
  O1     O1        0.346303731859997    0.458375684380332    0.344916501379479  0.0000
  O1     O1        0.849631805378965    0.512266019116502    0.672426758571302  0.0000
  O1     O1        0.666369115544422    0.456684835475329    0.665437362313932  0.0000
  O1     O1        0.240147097199923    0.204289414469538    0.299429451797021  0.0000
  O1     O1        0.267716921168608    0.762713901519661    0.289520819135802  0.0000
  O1     O1        0.769849175592262    0.204200858178107    0.710508422926310  0.0000
  O1     O1        0.741972019186688    0.761901427964398    0.725247260928254  0.0000
  O3     O3        0.124818460066857    0.309258076816252    0.133889591084861  0.0000
  O1     O1        0.383162715072670    0.644227424460509    0.126497322350915  0.0000
  O3     O3        0.880882676918072    0.316693742982663    0.888536674881237  0.0000
  O1     O1        0.622860746733616    0.653841658724664    0.880733008613374  0.0000
  O1     O1        0.861939098346333    0.718984331774207    0.893336065094728  0.0000
  O1     O1        0.643136233653716    0.229370181889028    0.872024799515855  0.0000
  O1     O1        0.140410895970823    0.732034075946352    0.133489557080668  0.0000
  O1     O1        0.360547290609569    0.244432910373448    0.127811538705929  0.0000
  O1     O1        0.653186751135312    0.438466454035968    0.090829737499525  0.0000
  O3     O3        0.840029771703236    0.486572064945073    0.097428567994028  0.0000
  O1     O1        0.343459035870764    0.443587584983239    0.908535190617414  0.0000
  O3     O3        0.160682313941667    0.489206998346239    0.931421410524438  0.0000
  O3     O3        0.769221394930924    0.205635620600096    0.025519137775051  0.0000
  O1     O1        0.735728483245733    0.742000327331976    0.055632559986392  0.0000
  O3     O3        0.231816666466072    0.202780513715156    0.978743958348373  0.0000
  O1     O1        0.266050748172816    0.746431010416421    0.971671845367349  0.0000
