data_c01407.vasp
_audit_creation_method             Generated by GULP
_audit_author_name                 Salvador R. G. Balestra
_symmetry_space_group_name_H-M     'P 1             '
_symmetry_Int_Tables_number        1

loop_
_symmetry_equiv_pos_site_id
_symmetry_equiv_pos_as_xyz
_cell_length_a                       17.4675
_cell_length_b                        7.8195
_cell_length_c                       10.1902
_cell_angle_alpha                   90.2377
_cell_angle_beta                    90.2825
_cell_angle_gamma                   91.4748

loop_
_atom_site_label
_atom_site_type_symbol
_atom_site_fract_x
_atom_site_fract_y
_atom_site_fract_z
_atom_site_charge
  Ge     Ge        0.052090000000021    0.000000000000000    0.372269999999958  0.0000
  Ge     Ge        0.551494114251747    0.004494804524400    0.107203341585498  0.0000
  Ge     Ge        0.941703771019736    0.062435445450658    0.122980979362092  0.0000
  Ge     Ge        0.446887040659223    0.060122241010225    0.848347283872317  0.0000
  Ge     Ge        0.044462999903537    0.991462187853365    0.865749656790861  0.0000
  Ge     Ge        0.174903271598684    0.283480424753700    0.256724100159422  0.0000
  Ge     Ge        0.330639928461583    0.764429281011403    0.251730992021191  0.0000
  Ge     Ge        0.850940980093932    0.364713969678211    0.685883448864185  0.0000
  Ge     Ge        0.646165977398446    0.693035884662188    0.676449267436157  0.0000
  Ge     Ge        0.828710280717918    0.767952622517194    0.683119979604872  0.0000
  Ge     Ge        0.666868078302085    0.287969186990987    0.684802540575600  0.0000
  Ge     Ge        0.146521396649229    0.686120891219035    0.255890588164013  0.0000
  Ge     Ge        0.358853813880663    0.361223600126655    0.244842436190825  0.0000
  Ge     Ge        0.668521429240861    0.299367070152607    0.000609592782373  0.0000
  Ge     Ge        0.821576586790024    0.777655864228914    0.001980218622616  0.0000
  Ge     Ge        0.350145359405466    0.368984572632853    0.927196501913283  0.0000
  Ge     Ge        0.144595650750458    0.682857624334466    0.936366525796342  0.0000
  Ge     Ge        0.324684161390338    0.772737730379399    0.933799139101017  0.0000
  Ge     Ge        0.170140858363812    0.278435982394815    0.939929700253431  0.0000
  Ge     Ge        0.851859671485011    0.378023763171930    0.003693890374756  0.0000
  Si     Si        0.448896809311903    0.047812759824949    0.356387082183816  0.0000
  Si     Si        0.945975346328546    0.054243170976244    0.614636703501693  0.0000
  Si     Si        0.551606783783953    0.001406973430105    0.600498912490173  0.0000
  Si     Si        0.643350897344679    0.695906400583565    0.987957796558823  0.0000
  O1     O1        0.130179854813582    0.133227601547708    0.352646940832612  0.0000
  O3     O3        0.375310112287179    0.922741682505042    0.345273399075118  0.0000
  O3     O3        0.912850169662587    0.241906857109663    0.594196836931610  0.0000
  O3     O3        0.582506099183929    0.811109764385094    0.584998616212334  0.0000
  O3     O3        0.879785205289633    0.911200048288995    0.586447920874939  0.0000
  O3     O3        0.620143341533140    0.140296130991524    0.583691864451054  0.0000
  O1     O1        0.079860442340909    0.794829972195610    0.344205100783028  0.0000
  O3     O3        0.426651646876368    0.241326225872695    0.325109354976761  0.0000
  O3     O3        0.021937423387568    0.020082860123549    0.534291919266598  0.0000
  O2     O2        0.480016434315684    0.039034543429644    0.506482098993859  0.0000
  O1     O1        0.973431239525490    0.053409350276700    0.281936798945229  0.0000
  O3     O3        0.517582703593046    0.985880270420274    0.265591666841928  0.0000
  O3     O3        0.967248183760041    0.036864893947483    0.769263946967000  0.0000
  O3     O3        0.523091483957808    0.019407345652454    0.750223282697640  0.0000
  O1     O1        0.623799612142486    0.157138038277746    0.103019811626498  0.0000
  O1     O1        0.860808395767215    0.935102526004958    0.098098738347497  0.0000
  O1     O1        0.410628260739502    0.260292717235210    0.827040332319773  0.0000
  O1     O1        0.079195131931672    0.789834263147784    0.843902286736338  0.0000
  O1     O1        0.373877453505264    0.909604239157769    0.833357739764774  0.0000
  O1     O1        0.118151837629231    0.138636918483279    0.844658350783090  0.0000
  O3     O3        0.580992119176218    0.801443381029237    0.065206139910575  0.0000
  O1     O1        0.918603399377075    0.270670404467810    0.091413650251150  0.0000
  O1     O1        0.477398857567162    0.060563583501416    0.009383585560938  0.0000
  O1     O1        0.014982160954999    0.995640230847606    0.026840541448254  0.0000
  O1     O1        0.158693681306262    0.484921036063790    0.317618763478474  0.0000
  O1     O1        0.350242347815960    0.563369043578291    0.309871388141918  0.0000
  O1     O1        0.842566524362363    0.564755865543582    0.621768034406225  0.0000
  O1     O1        0.652874731053460    0.488813613559677    0.619676436231011  0.0000
  O1     O1        0.271776424317577    0.254298079840736    0.252257281769764  0.0000
  O1     O1        0.233782634190759    0.794122353249064    0.257864869494072  0.0000
  O1     O1        0.763569802933051    0.257242636503929    0.688554196206490  0.0000
  O1     O1        0.732395767378639    0.802849823490267    0.673124852376716  0.0000
  O1     O1        0.138490000732272    0.264626059138586    0.099797594665154  0.0000
  O1     O1        0.360352369460015    0.784159053472196    0.091791177458231  0.0000
  O1     O1        0.882784144623747    0.392354446451517    0.843919514196420  0.0000
  O3     O3        0.616580211877767    0.670422318167776    0.837676779728593  0.0000
  O1     O1        0.857047212598404    0.783931515626260    0.844668528186343  0.0000
  O1     O1        0.633963518670993    0.271040754288817    0.843344244425589  0.0000
  O1     O1        0.115166547169327    0.664737752093957    0.096927417465777  0.0000
  O1     O1        0.385518174589997    0.389017945765067    0.085052396957982  0.0000
  O3     O3        0.654252041076104    0.509910303554216    0.050343493595508  0.0000
  O1     O1        0.841595354689569    0.580168576312518    0.065642364651974  0.0000
  O1     O1        0.334035215689523    0.568555487730232    0.870354065258965  0.0000
  O1     O1        0.157962566172737    0.482040973685323    0.878160880125566  0.0000
  O1     O1        0.765065336410054    0.268524570002892    0.003467561932800  0.0000
  O3     O3        0.723573468092559    0.802702564875930    0.990969293270273  0.0000
  O1     O1        0.266560529569203    0.245872998598233    0.938503131828713  0.0000
  O1     O1        0.228231675846063    0.806473459655572    0.938466601631371  0.0000
