data_c01417.vasp
_audit_creation_method             Generated by GULP
_audit_author_name                 Salvador R. G. Balestra
_symmetry_space_group_name_H-M     'P 1             '
_symmetry_Int_Tables_number        1

loop_
_symmetry_equiv_pos_site_id
_symmetry_equiv_pos_as_xyz
_cell_length_a                       17.4065
_cell_length_b                        7.8258
_cell_length_c                       10.2298
_cell_angle_alpha                   90.0325
_cell_angle_beta                    89.9615
_cell_angle_gamma                   88.1109

loop_
_atom_site_label
_atom_site_type_symbol
_atom_site_fract_x
_atom_site_fract_y
_atom_site_fract_z
_atom_site_charge
  Ge     Ge        0.052090000000021    0.000000000000000    0.372269999999958  0.0000
  Ge     Ge        0.941561299573069    0.948491333051992    0.123379021251159  0.0000
  Ge     Ge        0.447340236071539    0.944747390861204    0.818447717833445  0.0000
  Ge     Ge        0.045642519326339    0.012880075729768    0.866273269817751  0.0000
  Ge     Ge        0.147268821761237    0.311175860259454    0.253642574867047  0.0000
  Ge     Ge        0.358954861407524    0.630826369592364    0.249401862930305  0.0000
  Ge     Ge        0.828522115964460    0.233306500759178    0.688033088504135  0.0000
  Ge     Ge        0.667615801265068    0.711098711365603    0.677924428353735  0.0000
  Ge     Ge        0.852592069092020    0.634580909395329    0.684285877478197  0.0000
  Ge     Ge        0.642819726150468    0.308058704271822    0.681267681320704  0.0000
  Ge     Ge        0.174863349868899    0.713905286763780    0.256407975683581  0.0000
  Ge     Ge        0.331651894749235    0.229095523932359    0.247464722294487  0.0000
  Ge     Ge        0.638425344880571    0.319630810940142    0.996615125784790  0.0000
  Ge     Ge        0.847444468761942    0.639061668861443    0.000987793860831  0.0000
  Ge     Ge        0.325154547953227    0.230849185421315    0.930137215240008  0.0000
  Ge     Ge        0.171954546781709    0.725526528441156    0.940676985358417  0.0000
  Ge     Ge        0.354099095925561    0.633535853747664    0.933722850856217  0.0000
  Ge     Ge        0.143751154920204    0.323091704657091    0.935441850931388  0.0000
  Ge     Ge        0.663891200945362    0.722628920054596    0.994012938967390  0.0000
  Ge     Ge        0.821445520661161    0.236412860699719    0.003794081908425  0.0000
  Si     Si        0.450444154313764    0.944589118079864    0.324711779167147  0.0000
  Si     Si        0.946693029557997    0.945724352071954    0.616644936791592  0.0000
  Si     Si        0.552837608180521    0.998006041482260    0.567868783739162  0.0000
  Si     Si        0.546915406189258    0.012485718567294    0.074976650163520  0.0000
  O1     O1        0.080525226340884    0.203616450739108    0.342077958003046  0.0000
  O3     O3        0.423035071115945    0.752391208060120    0.337728902386562  0.0000
  O3     O3        0.877527121217520    0.083961317835903    0.592134049588553  0.0000
  O3     O3        0.625300982536247    0.868109860758917    0.581599119577309  0.0000
  O3     O3        0.916221800535298    0.756144799634186    0.595551289593014  0.0000
  O3     O3        0.578638168268106    0.189862859011455    0.592852492191737  0.0000
  O1     O1        0.129743841725744    0.862660515536399    0.354373249882075  0.0000
  O3     O3        0.379240049472257    0.077491208493426    0.343566261255923  0.0000
  O3     O3        0.021502258700752    0.984822790019342    0.534019035841351  0.0000
  O2     O2        0.520389623499031    0.983888482018642    0.420521392054864  0.0000
  O1     O1        0.973854313704198    0.947769403265343    0.281581907971296  0.0000
  O2     O2        0.478828167521435    0.973263122793435    0.174922861140636  0.0000
  O3     O3        0.969187412471951    0.963929122681390    0.769982685470608  0.0000
  O3     O3        0.484209621929505    0.946889471165101    0.662720919008876  0.0000
  O3     O3        0.576921449302781    0.202888431918512    0.092921005094801  0.0000
  O1     O1        0.913767413601766    0.744466885470930    0.089467156378292  0.0000
  O1     O1        0.369495927237363    0.083541562748772    0.830060756333542  0.0000
  O1     O1        0.121795210810326    0.869156781740806    0.846472716939896  0.0000
  O1     O1        0.420325691432267    0.739165795173135    0.844261402618958  0.0000
  O1     O1        0.078096826747007    0.215955424409504    0.844392149880166  0.0000
  O3     O3        0.616184957601674    0.872612382981132    0.090055522655639  0.0000
  O1     O1        0.864237048206932    0.088582883806850    0.104407098746687  0.0000
  O3     O3        0.517298820364615    0.003496263267001    0.926386983708174  0.0000
  O1     O1        0.016527915879981    0.006103801632051    0.027103944071212  0.0000
  O1     O1        0.159886453383544    0.511879477520081    0.315773629317319  0.0000
  O1     O1        0.349626839189210    0.429412335606606    0.310275198706448  0.0000
  O1     O1        0.845548347278096    0.432687051868846    0.623249359551481  0.0000
  O1     O1        0.652238554193609    0.509484382735875    0.617687141245337  0.0000
  O1     O1        0.234424435712242    0.199511899119841    0.254069034510185  0.0000
  O1     O1        0.272002611004413    0.741727641504534    0.250814405445879  0.0000
  O1     O1        0.731349177922307    0.203830317104092    0.684310450486814  0.0000
  O1     O1        0.764482484326934    0.740633436214002    0.682542861399553  0.0000
  O1     O1        0.115032343904331    0.337318073607972    0.096420699679454  0.0000
  O1     O1        0.388500579429380    0.609778207795649    0.090393181147099  0.0000
  O1     O1        0.859049653278831    0.222156284469559    0.847950697533234  0.0000
  O1     O1        0.632232460338333    0.730228953037065    0.834548461112686  0.0000
  O1     O1        0.881198401248508    0.614612706928843    0.843897583477406  0.0000
  O1     O1        0.607888839356849    0.334838425112039    0.836944589273694  0.0000
  O1     O1        0.139446469051116    0.736541020522316    0.099959938715510  0.0000
  O1     O1        0.360372503196639    0.216532490344707    0.087026533204825  0.0000
  O1     O1        0.647462130301727    0.521363113618983    0.056224017512184  0.0000
  O1     O1        0.834085193704218    0.439586631981763    0.063850227868871  0.0000
  O1     O1        0.338945651796824    0.434858384790962    0.871645781749493  0.0000
  O1     O1        0.157099835747979    0.523581640548501    0.878083703377636  0.0000
  O1     O1        0.724752920767540    0.206926285348917    0.992768671903979  0.0000
  O1     O1        0.760835713303943    0.753172732915460    0.996945365026272  0.0000
  O1     O1        0.228273374916001    0.201248631810619    0.934677294647018  0.0000
  O1     O1        0.269193233686650    0.753998069867790    0.938986685594186  0.0000
