data_c01400.vasp
_audit_creation_method             Generated by GULP
_audit_author_name                 Salvador R. G. Balestra
_symmetry_space_group_name_H-M     'P 1             '
_symmetry_Int_Tables_number        1

loop_
_symmetry_equiv_pos_site_id
_symmetry_equiv_pos_as_xyz
_cell_length_a                       17.5556
_cell_length_b                        7.8236
_cell_length_c                       10.0849
_cell_angle_alpha                   90.8111
_cell_angle_beta                    89.6908
_cell_angle_gamma                   88.6348

loop_
_atom_site_label
_atom_site_type_symbol
_atom_site_fract_x
_atom_site_fract_y
_atom_site_fract_z
_atom_site_charge
  Ge     Ge        0.052090000000021    0.000000000000000    0.372269999999958  0.0000
  Ge     Ge        0.554430860499926    0.987680809545687    0.609523097603165  0.0000
  Ge     Ge        0.542786492006611    0.004163973016428    0.107162111679308  0.0000
  Ge     Ge        0.948825262954957    0.938162621134864    0.115116229370915  0.0000
  Ge     Ge        0.050867214367338    0.991060790019872    0.853369641391657  0.0000
  Ge     Ge        0.149545834438668    0.311264291616163    0.295572542033436  0.0000
  Ge     Ge        0.356003631796141    0.637364709096897    0.288350420722578  0.0000
  Ge     Ge        0.828308705728757    0.222912405469404    0.723339895200058  0.0000
  Ge     Ge        0.671202069023185    0.692553181831199    0.714714048265018  0.0000
  Ge     Ge        0.854562951578071    0.623291092877779    0.721220669754213  0.0000
  Ge     Ge        0.174231549973058    0.714822246645756    0.289607245731449  0.0000
  Ge     Ge        0.331066925129028    0.234032392580274    0.288165688036941  0.0000
  Ge     Ge        0.645825893566080    0.310936828018446    0.041442242216209  0.0000
  Ge     Ge        0.848136656761644    0.629150461736618    0.044292005176546  0.0000
  Ge     Ge        0.328347651006765    0.227156571822785    0.965586703732352  0.0000
  Ge     Ge        0.172792300509329    0.708761867900662    0.969069618665534  0.0000
  Ge     Ge        0.355540758498147    0.630574835787851    0.968532229165012  0.0000
  Ge     Ge        0.145840697566461    0.304579413705300    0.972689509149451  0.0000
  Ge     Ge        0.668498807043438    0.716188851175652    0.034207113824361  0.0000
  Ge     Ge        0.824272024225491    0.225503931879278    0.045589417401518  0.0000
  Si     Si        0.446481084268526    0.950724114158151    0.365213625011868  0.0000
  Si     Si        0.943897010855961    0.933953728991295    0.609070277337969  0.0000
  Si     Si        0.443994067311849    0.939497403956878    0.850922587719334  0.0000
  Si     Si        0.649772563921661    0.297427680198792    0.724404759587431  0.0000
  O1     O1        0.086439437724551    0.201524694597193    0.391884802497169  0.0000
  O3     O3        0.416309044332555    0.760523125520528    0.384791192462441  0.0000
  O3     O3        0.870909455678576    0.056801135436047    0.634885095473917  0.0000
  O1     O1        0.623645376279333    0.831621227771429    0.613170300739479  0.0000
  O3     O3        0.922121303447337    0.740006968975282    0.638066518583006  0.0000
  O3     O3        0.589028851018135    0.187323538585574    0.644613393859991  0.0000
  O1     O1        0.125720371543820    0.854964970069155    0.392685074859098  0.0000
  O3     O3        0.379166914788531    0.091287277060742    0.388933822669884  0.0000
  O3     O3        0.969974055572349    0.953092479644597    0.456789824322123  0.0000
  O3     O3        0.521048388658455    0.990887049523608    0.447532195384483  0.0000
  O1     O1        0.026231638061561    0.981026782784374    0.207022315791275  0.0000
  O3     O3        0.467454833661231    0.965468111443069    0.208496933398466  0.0000
  O3     O3        0.018131038057832    0.989412472975001    0.691099803026467  0.0000
  O3     O3        0.474134096288013    0.944321392486993    0.700977969503028  0.0000
  O1     O1        0.577038173025410    0.207176352417130    0.126326058711515  0.0000
  O1     O1        0.911190273259368    0.739572185816966    0.138966553211393  0.0000
  O3     O3        0.371872598822490    0.068058600511750    0.870586987699791  0.0000
  O1     O1        0.128255431729118    0.855105376024268    0.870140929595504  0.0000
  O3     O3        0.420731253076753    0.746098568634140    0.880756377140324  0.0000
  O1     O1        0.078192389377368    0.196542842579487    0.886891507215666  0.0000
  O1     O1        0.616599179084895    0.859279060494947    0.128420578991780  0.0000
  O1     O1        0.876962235573145    0.089731746724033    0.140087479213848  0.0000
  O3     O3        0.513208105536644    0.995483415064994    0.943707404510517  0.0000
  O1     O1        0.976289456496089    0.934072279647228    0.950137838720947  0.0000
  O1     O1        0.162209227514132    0.513361993038069    0.353729249595865  0.0000
  O1     O1        0.345501978548929    0.437853862072136    0.350920601128270  0.0000
  O1     O1        0.849725409862865    0.417665908972280    0.658032640031124  0.0000
  O3     O3        0.659168908706513    0.482712307940069    0.660481078461624  0.0000
  O1     O1        0.235241702438385    0.197827539205112    0.291456576111794  0.0000
  O1     O1        0.270043011859735    0.748532716800112    0.283431022495614  0.0000
  O3     O3        0.730703934669541    0.195292559360470    0.721765641105326  0.0000
  O1     O1        0.767359065457572    0.725695865774137    0.710658068217493  0.0000
  O1     O1        0.117127978234023    0.324498728548497    0.135424560478616  0.0000
  O1     O1        0.388255085663375    0.612040439215400    0.128086539161302  0.0000
  O1     O1        0.857777737435793    0.211457766549891    0.884444215016896  0.0000
  O1     O1        0.637485039473009    0.728088821280722    0.872547397518345  0.0000
  O1     O1        0.880396662988598    0.601837630486624    0.883277934070880  0.0000
  O3     O3        0.622615500351313    0.329004932088019    0.874769411339813  0.0000
  O1     O1        0.139617315009506    0.726828549869482    0.129993093960074  0.0000
  O1     O1        0.361435215387197    0.222362192446606    0.125616157114604  0.0000
  O1     O1        0.656343174370359    0.514327075224007    0.098171637184220  0.0000
  O1     O1        0.833507176546624    0.431721374637069    0.106557004632814  0.0000
  O1     O1        0.345533387246663    0.427867624732643    0.904360939407687  0.0000
  O1     O1        0.156407881927124    0.505099790711716    0.910321227177473  0.0000
  O1     O1        0.728527400105506    0.188213890605749    0.049645864538312  0.0000
  O1     O1        0.764505965650628    0.750020734686968    0.035973950514042  0.0000
  O1     O1        0.232171906398670    0.194980389036085    0.966080755001856  0.0000
  O1     O1        0.269216465722866    0.738085349317196    0.970171972261080  0.0000
