data_c01411.vasp
_audit_creation_method             Generated by GULP
_audit_author_name                 Salvador R. G. Balestra
_symmetry_space_group_name_H-M     'P 1             '
_symmetry_Int_Tables_number        1

loop_
_symmetry_equiv_pos_site_id
_symmetry_equiv_pos_as_xyz
_cell_length_a                       17.4963
_cell_length_b                        7.8168
_cell_length_c                       10.1164
_cell_angle_alpha                   90.6365
_cell_angle_beta                    90.1884
_cell_angle_gamma                   91.3663

loop_
_atom_site_label
_atom_site_type_symbol
_atom_site_fract_x
_atom_site_fract_y
_atom_site_fract_z
_atom_site_charge
  Ge     Ge        0.052090000000021    0.000000000000000    0.372269999999958  0.0000
  Ge     Ge        0.543983460376401    0.993512565248358    0.112590355200145  0.0000
  Ge     Ge        0.939186382465368    0.049559819101961    0.124988376448846  0.0000
  Ge     Ge        0.443802079950963    0.052553348967596    0.849195843879772  0.0000
  Ge     Ge        0.041940617135080    0.982542337920926    0.866120742003195  0.0000
  Ge     Ge        0.168740197476124    0.293974840313170    0.261546045546871  0.0000
  Ge     Ge        0.326049928725480    0.765330092768368    0.253940432274554  0.0000
  Ge     Ge        0.848266212666798    0.349563226406536    0.681972242645538  0.0000
  Ge     Ge        0.641654190043901    0.678707220308006    0.674340182778415  0.0000
  Ge     Ge        0.825015307450557    0.752666590675565    0.683495990858094  0.0000
  Ge     Ge        0.664600585102237    0.276091487310264    0.680597645136713  0.0000
  Ge     Ge        0.353223561922811    0.363222541601152    0.253574738573352  0.0000
  Ge     Ge        0.666550732197051    0.275345882696117    0.001078739351726  0.0000
  Ge     Ge        0.817759799380976    0.763928774546317    0.004389105084807  0.0000
  Ge     Ge        0.346118914461112    0.359391999161441    0.933233478746045  0.0000
  Ge     Ge        0.143488838881205    0.677196655428654    0.936942568864861  0.0000
  Ge     Ge        0.322114169944857    0.765590792870002    0.933880907872515  0.0000
  Ge     Ge        0.166238540417251    0.270417869764876    0.944301060060422  0.0000
  Ge     Ge        0.636477309134163    0.677722385738207    0.994973796155652  0.0000
  Ge     Ge        0.848111727970587    0.361332812029413    0.002184665461664  0.0000
  Si     Si        0.441680870903758    0.050332967872089    0.364945405556320  0.0000
  Si     Si        0.943016761385894    0.037058779193039    0.613592361155868  0.0000
  Si     Si        0.548082193868176    0.989928320039422    0.601746610133754  0.0000
  Si     Si        0.146301154231345    0.690228880344114    0.251870989654743  0.0000
  O1     O1        0.122361744202498    0.154914707715295    0.364848618466111  0.0000
  O3     O3        0.367111066411431    0.928975236904164    0.347335537151447  0.0000
  O3     O3        0.910777714362994    0.225354330384590    0.590920655019568  0.0000
  O3     O3        0.579365242067062    0.800635882987089    0.581581176845516  0.0000
  O3     O3        0.875837998509994    0.896416335844518    0.586910479259164  0.0000
  O3     O3        0.616093333327833    0.128067733921602    0.580725423590721  0.0000
  O3     O3        0.086225582320298    0.800086706299987    0.333882643754173  0.0000
  O3     O3        0.419299765014634    0.244924839718334    0.339661687530783  0.0000
  O3     O3        0.019505753065601    0.997876488979494    0.535061099529630  0.0000
  O2     O2        0.473235315882271    0.030439911066368    0.515094310455712  0.0000
  O1     O1        0.971535298416684    0.044655057519523    0.284887753664940  0.0000
  O3     O3        0.510782727323290    0.991919934114094    0.273127425438416  0.0000
  O3     O3        0.964341118822061    0.024165154868242    0.769699969537700  0.0000
  O3     O3        0.521718483288594    0.008846336279189    0.754395124056140  0.0000
  O1     O1        0.623146024676372    0.126173902857637    0.099041458097758  0.0000
  O1     O1        0.860622203939378    0.915958247852721    0.103156823649176  0.0000
  O1     O1        0.405841337598995    0.251212249658973    0.829554132126513  0.0000
  O1     O1        0.076736980239002    0.779861741455837    0.845773636205325  0.0000
  O1     O1        0.372882867179537    0.897875390093407    0.832405320587217  0.0000
  O1     O1        0.115242053302274    0.130787928298745    0.846335156184869  0.0000
  O1     O1        0.567449717443755    0.785776294815828    0.077239200500675  0.0000
  O1     O1        0.914793340579142    0.256602164950442    0.091507887782066  0.0000
  O1     O1        0.472781357245557    0.060015896526605    0.012339873330861  0.0000
  O1     O1        0.013576495578715    0.987643186940008    0.028546657770730  0.0000
  O3     O3        0.155803015676924    0.503885500186144    0.314528483504378  0.0000
  O1     O1        0.347743876436558    0.568642964799793    0.315814105977856  0.0000
  O1     O1        0.839521661600799    0.550198843700846    0.619268899701650  0.0000
  O1     O1        0.650821847630634    0.475606122222239    0.613484095734538  0.0000
  O1     O1        0.265240394196903    0.262089557210445    0.261603322260520  0.0000
  O3     O3        0.228006175170500    0.790535029950454    0.252832118984474  0.0000
  O1     O1        0.760946134679001    0.242433829972045    0.682152432480375  0.0000
  O1     O1        0.728559928135527    0.786756048976030    0.677498736475544  0.0000
  O1     O1        0.133347276851086    0.258002710205206    0.104936989889522  0.0000
  O1     O1        0.356890516824441    0.783228370823531    0.093652996768939  0.0000
  O1     O1        0.879384615525313    0.377843764150457    0.841618306542304  0.0000
  O1     O1        0.608700967134732    0.654611527475435    0.832343353584121  0.0000
  O1     O1        0.853636192798360    0.769071845674735    0.845941958253116  0.0000
  O1     O1        0.632514014230763    0.263422662021027    0.840763899254448  0.0000
  O3     O3        0.117421485243997    0.661905437694060    0.102528335260399  0.0000
  O1     O1        0.381174199619682    0.382140107862025    0.092393071391880  0.0000
  O1     O1        0.649388556133389    0.479260182187914    0.059760579063313  0.0000
  O1     O1        0.833602079453454    0.562036938251257    0.064979307676264  0.0000
  O1     O1        0.330507386113586    0.558417367858381    0.875043691641940  0.0000
  O1     O1        0.155065059468416    0.473887309444392    0.881939318290732  0.0000
  O1     O1        0.763105824143143    0.245237738495444    0.999875680056813  0.0000
  O1     O1        0.721176575433115    0.794666944164633    0.998753653342878  0.0000
  O1     O1        0.262610765516123    0.237317883054365    0.945476539296578  0.0000
  O1     O1        0.226053476881893    0.802178857060789    0.932725949841128  0.0000
