data_c01402.vasp
_audit_creation_method             Generated by GULP
_audit_author_name                 Salvador R. G. Balestra
_symmetry_space_group_name_H-M     'P 1             '
_symmetry_Int_Tables_number        1

loop_
_symmetry_equiv_pos_site_id
_symmetry_equiv_pos_as_xyz
_cell_length_a                       17.4232
_cell_length_b                        7.8274
_cell_length_c                       10.2781
_cell_angle_alpha                   90.1146
_cell_angle_beta                    89.8223
_cell_angle_gamma                   91.7902

loop_
_atom_site_label
_atom_site_type_symbol
_atom_site_fract_x
_atom_site_fract_y
_atom_site_fract_z
_atom_site_charge
  Ge     Ge        0.052090000000021    0.000000000000000    0.372269999999958  0.0000
  Ge     Ge        0.547874464496688    0.000507192722941    0.606741605458171  0.0000
  Ge     Ge        0.546503984662229    0.995942463219967    0.110312611575923  0.0000
  Ge     Ge        0.944628750097152    0.061455466507155    0.120276340236798  0.0000
  Ge     Ge        0.173326662104809    0.285701515299346    0.257366455919537  0.0000
  Ge     Ge        0.328542844088034    0.766896586158470    0.252100800407290  0.0000
  Ge     Ge        0.856347253687938    0.367867051539295    0.690104468158517  0.0000
  Ge     Ge        0.647716276528740    0.687912538715048    0.679903307653348  0.0000
  Ge     Ge        0.830954685492895    0.769352839051104    0.691287009458503  0.0000
  Ge     Ge        0.673130060556808    0.285718589095626    0.684602759646146  0.0000
  Ge     Ge        0.144406362824209    0.686005883537381    0.256008364350639  0.0000
  Ge     Ge        0.357394333965449    0.366489283909568    0.246777351308034  0.0000
  Ge     Ge        0.670499635510212    0.281865753150587    0.000652883197547  0.0000
  Ge     Ge        0.822364201665986    0.774311007950575    0.008087513796126  0.0000
  Ge     Ge        0.350310575158830    0.362591818367412    0.932599536289450  0.0000
  Ge     Ge        0.145417931418571    0.689155487712926    0.939654955849499  0.0000
  Ge     Ge        0.329540029006960    0.765048476884851    0.936872872689723  0.0000
  Ge     Ge        0.166075980812582    0.286026101677651    0.943757817022937  0.0000
  Ge     Ge        0.640518141212833    0.684329467346025    0.996981460687045  0.0000
  Ge     Ge        0.852573940103915    0.373977188542703    0.005729245818449  0.0000
  Si     Si        0.444666383236890    0.054487375424312    0.359835271973456  0.0000
  Si     Si        0.951759104001305    0.054827514401630    0.623547422361139  0.0000
  Si     Si        0.446193919455057    0.057469752437117    0.859726538742392  0.0000
  Si     Si        0.048075244249340    0.994026106019217    0.871063721439501  0.0000
  O1     O1        0.131554744162568    0.131239982374616    0.352635867020470  0.0000
  O3     O3        0.371101346616147    0.929040867751193    0.342277981457650  0.0000
  O3     O3        0.922258007082699    0.245598580465213    0.607160396868838  0.0000
  O1     O1        0.582574384910278    0.799532068866326    0.591085203422677  0.0000
  O3     O3        0.881995474393790    0.919222552316485    0.599521566518328  0.0000
  O1     O1        0.623423037517129    0.143716438929071    0.587573212346824  0.0000
  O1     O1        0.077358471833032    0.793637536916279    0.342907183546034  0.0000
  O3     O3        0.424086628117977    0.248828596707960    0.328993076042811  0.0000
  O3     O3        0.023113084705545    0.018670723720119    0.532726860719610  0.0000
  O3     O3        0.471656979707340    0.041729573297171    0.508534138220387  0.0000
  O1     O1        0.977106844202348    0.057457022699518    0.276901639659697  0.0000
  O3     O3        0.514792507580277    0.996445571502216    0.269744057929116  0.0000
  O2     O2        0.977935063686144    0.029452105825202    0.774568443215579  0.0000
  O3     O3        0.517004246564304    0.023126643865956    0.767336784253544  0.0000
  O1     O1        0.625090045872553    0.131397085301322    0.095915268428263  0.0000
  O1     O1        0.866112619792107    0.925740521211221    0.104238286569157  0.0000
  O3     O3        0.410439218177767    0.242376367267062    0.836906529223694  0.0000
  O3     O3        0.082225720358767    0.807712254769358    0.849442603889753  0.0000
  O3     O3        0.379736084030388    0.911119788889831    0.841744452262396  0.0000
  O3     O3        0.115399169941141    0.137217637285374    0.851823821308412  0.0000
  O1     O1        0.570571237031209    0.789417837116913    0.078596337893422  0.0000
  O1     O1        0.920336332037534    0.268123760896416    0.090734238408399  0.0000
  O3     O3        0.473633568179223    0.058741326532715    0.009986325305763  0.0000
  O3     O3        0.018000254474467    0.998489729855488    0.019133026909726  0.0000
  O1     O1        0.156720823038658    0.486305304176269    0.318693249854991  0.0000
  O1     O1        0.348164255636953    0.567060168230497    0.312232760911242  0.0000
  O1     O1        0.847500991481280    0.568663345413192    0.627614634213314  0.0000
  O1     O1        0.660754102454498    0.487239042279787    0.621182632097761  0.0000
  O1     O1        0.270209697942663    0.258289620867783    0.249307811875083  0.0000
  O1     O1        0.231725100100119    0.795848082196772    0.255362868704664  0.0000
  O1     O1        0.770087961509093    0.254483901388383    0.686538567094197  0.0000
  O1     O1        0.734147440732035    0.802034450196025    0.681957910142580  0.0000
  O1     O1        0.135453116392552    0.272737544547763    0.102711228372874  0.0000
  O1     O1        0.361928706545885    0.777220297317451    0.094699257222965  0.0000
  O1     O1        0.884202014702671    0.397395060149628    0.848185419649459  0.0000
  O1     O1        0.614684758547753    0.665030714853184    0.836646639472320  0.0000
  O1     O1        0.857377004823541    0.782539792842985    0.851673137287338  0.0000
  O1     O1        0.639817654230221    0.267937887906136    0.842052055220525  0.0000
  O1     O1        0.114550479444867    0.666156828289732    0.097527538150443  0.0000
  O1     O1        0.385252803066275    0.390534307805600    0.087776645183844  0.0000
  O1     O1        0.652624725638306    0.484156961204457    0.058606621354452  0.0000
  O1     O1        0.838038989885225    0.572663161413501    0.069013747735175  0.0000
  O1     O1        0.341452892096382    0.563927696012130    0.871611626925231  0.0000
  O1     O1        0.152716974729061    0.486717296775209    0.879421489287836  0.0000
  O1     O1        0.767792755836113    0.254791467829596    0.004266481896414  0.0000
  O1     O1        0.725282992508151    0.803263575573989    0.005000866850704  0.0000
  O1     O1        0.262925550020165    0.254134044112336    0.940907799359104  0.0000
  O1     O1        0.232771302238709    0.798229207174183    0.939161843394509  0.0000
