data_c01401.vasp
_audit_creation_method             Generated by GULP
_audit_author_name                 Salvador R. G. Balestra
_symmetry_space_group_name_H-M     'P 1             '
_symmetry_Int_Tables_number        1

loop_
_symmetry_equiv_pos_site_id
_symmetry_equiv_pos_as_xyz
_cell_length_a                       17.5355
_cell_length_b                        7.8386
_cell_length_c                       10.1102
_cell_angle_alpha                   89.5470
_cell_angle_beta                    89.1191
_cell_angle_gamma                   91.9109

loop_
_atom_site_label
_atom_site_type_symbol
_atom_site_fract_x
_atom_site_fract_y
_atom_site_fract_z
_atom_site_charge
  Ge     Ge        0.052090000000021    0.000000000000000    0.372269999999958  0.0000
  Ge     Ge        0.554257789377676    0.015370915657669    0.642572736056673  0.0000
  Ge     Ge        0.550328174898382    0.007480573012003    0.150851419245378  0.0000
  Ge     Ge        0.952781473948843    0.068769787596562    0.112198350109882  0.0000
  Ge     Ge        0.057906169122653    0.012661720266043    0.850970790167307  0.0000
  Ge     Ge        0.174878369672810    0.287656331570505    0.289162524889557  0.0000
  Ge     Ge        0.331664388573849    0.770277784806420    0.292296334177014  0.0000
  Ge     Ge        0.860087757669176    0.376930362041133    0.727724068465051  0.0000
  Ge     Ge        0.655373731847332    0.703473896960197    0.712166903925531  0.0000
  Ge     Ge        0.676110443685533    0.304300560962453    0.716761235456864  0.0000
  Ge     Ge        0.149251288075908    0.690430485074340    0.293259671060632  0.0000
  Ge     Ge        0.357547675920800    0.369148251072189    0.286525583626996  0.0000
  Ge     Ge        0.673313237665855    0.296161520461496    0.037216483526051  0.0000
  Ge     Ge        0.826096717163181    0.779043032681560    0.044361003441763  0.0000
  Ge     Ge        0.360250086109198    0.381513762837163    0.967155555817966  0.0000
  Ge     Ge        0.152446413054417    0.703006867137218    0.971780474929443  0.0000
  Ge     Ge        0.335527112849077    0.782022374519334    0.971830334478017  0.0000
  Ge     Ge        0.178031569614547    0.298148548930214    0.969335331458007  0.0000
  Ge     Ge        0.645894343258616    0.699323843279370    0.036347982621706  0.0000
  Ge     Ge        0.855157863796544    0.379902220842107    0.045884184251034  0.0000
  Si     Si        0.445723085149013    0.058288324061105    0.402742130265043  0.0000
  Si     Si        0.948149239577100    0.062400655295719    0.614623363745558  0.0000
  Si     Si        0.453278501659703    0.073794226290393    0.897439435607272  0.0000
  Si     Si        0.834410154680777    0.770715967511142    0.727873402525943  0.0000
  O1     O1        0.126295704970510    0.146019845715075    0.391222356762978  0.0000
  O3     O3        0.374890852577600    0.926415658757414    0.387197597198684  0.0000
  O3     O3        0.922693895422722    0.254372510983266    0.637389774794238  0.0000
  O1     O1        0.593287967726079    0.819961651805305    0.622293009788092  0.0000
  O2     O2        0.881308729295671    0.924340596203323    0.653684726094010  0.0000
  O1     O1        0.627546145391194    0.162605719548929    0.618763225002926  0.0000
  O1     O1        0.085646180310914    0.798889834492489    0.389522103963499  0.0000
  O3     O3        0.422390156483466    0.250331827950563    0.371316173043309  0.0000
  O3     O3        0.970113977493851    0.040259206763488    0.460784258877572  0.0000
  O3     O3        0.474161523207353    0.049170896353158    0.552832275874379  0.0000
  O1     O1        0.027273714801289    0.021928239448709    0.207847826629633  0.0000
  O3     O3        0.517578011395881    0.006117992232787    0.312724118872179  0.0000
  O3     O3        0.026254108696496    0.023414757826712    0.689287180025260  0.0000
  O3     O3        0.525330741440971    0.033083141244102    0.807760441335923  0.0000
  O1     O1        0.627908440863427    0.144590593628682    0.134878826868608  0.0000
  O1     O1        0.877318983131732    0.922890501343729    0.132874682915194  0.0000
  O3     O3        0.422427795640134    0.262737113010292    0.872856357799310  0.0000
  O1     O1        0.087492230603256    0.809471051243872    0.881177351058549  0.0000
  O3     O3        0.385167674031772    0.933322656623266    0.877286394011252  0.0000
  O1     O1        0.134425474503411    0.152297925674268    0.869120568067919  0.0000
  O1     O1        0.575518792905386    0.802300071589567    0.118536742923560  0.0000
  O1     O1        0.917534325923010    0.268125405692862    0.138904369969855  0.0000
  O3     O3        0.477241271646904    0.069355836954347    0.051309337322299  0.0000
  O1     O1        0.982296277026927    0.063282077975832    0.948898402882247  0.0000
  O1     O1        0.160330106277895    0.488988790189834    0.351115919843268  0.0000
  O1     O1        0.346976359495254    0.568279879636787    0.353536490307577  0.0000
  O3     O3        0.852717440567350    0.585755463598062    0.667805927063042  0.0000
  O1     O1        0.662214897605368    0.503962112299330    0.650398890233911  0.0000
  O1     O1        0.271319234080395    0.258013151808480    0.286624954481575  0.0000
  O1     O1        0.235712228228110    0.802447781592235    0.291947705013148  0.0000
  O1     O1        0.772393812337956    0.275331138531981    0.719235493916923  0.0000
  O3     O3        0.745199088735069    0.805361744364157    0.715058302394414  0.0000
  O1     O1        0.142538945208241    0.276627955645081    0.128860810055027  0.0000
  O1     O1        0.366248929546749    0.786838317161438    0.132730915599444  0.0000
  O1     O1        0.891277834562492    0.390698580989830    0.885643674115872  0.0000
  O1     O1        0.622737855994569    0.686177800000784    0.872502889568866  0.0000
  O3     O3        0.857524450224209    0.771106297544490    0.880621501480690  0.0000
  O1     O1        0.641961663703798    0.286328505051928    0.877022117151319  0.0000
  O1     O1        0.119236859108696    0.682653950180662    0.132161195176110  0.0000
  O1     O1        0.389971385172724    0.403166543403865    0.127684548482530  0.0000
  O1     O1        0.656643168109118    0.497555890442649    0.097173884170565  0.0000
  O1     O1        0.841096473305866    0.577371074913153    0.107905652815858  0.0000
  O1     O1        0.351584059327467    0.583120622320352    0.905278904123517  0.0000
  O1     O1        0.164263280358571    0.502076239129503    0.911323145193642  0.0000
  O1     O1        0.769539488459902    0.266196409677796    0.036694702566124  0.0000
  O1     O1        0.730776057119614    0.816011933410377    0.049843618295754  0.0000
  O1     O1        0.274317280836749    0.269684127707583    0.972879334404968  0.0000
  O1     O1        0.239326651823285    0.813654084359547    0.970666242566003  0.0000
