data_c01418.vasp
_audit_creation_method             Generated by GULP
_audit_author_name                 Salvador R. G. Balestra
_symmetry_space_group_name_H-M     'P 1             '
_symmetry_Int_Tables_number        1

loop_
_symmetry_equiv_pos_site_id
_symmetry_equiv_pos_as_xyz
_cell_length_a                       17.6272
_cell_length_b                        7.8253
_cell_length_c                       10.3428
_cell_angle_alpha                   89.8931
_cell_angle_beta                    89.9998
_cell_angle_gamma                   89.9988

loop_
_atom_site_label
_atom_site_type_symbol
_atom_site_fract_x
_atom_site_fract_y
_atom_site_fract_z
_atom_site_charge
  Ge     Ge        0.556730000000016    0.000000000000000    0.122129999999970  0.0000
  Ge     Ge        0.953727988871680    0.022249407149343    0.148039404200759  0.0000
  Ge     Ge        0.453719651593034    0.997619270327627    0.863746642509353  0.0000
  Ge     Ge        0.056745565032612    0.019934997575923    0.889645890766936  0.0000
  Ge     Ge        0.154627464191953    0.332520604716328    0.292303972613312  0.0000
  Ge     Ge        0.357481175380644    0.687430641631403    0.291258572458268  0.0000
  Ge     Ge        0.857473612085383    0.332395935886352    0.720540213320754  0.0000
  Ge     Ge        0.654642079731155    0.687394102625856    0.719460799434497  0.0000
  Ge     Ge        0.838301572287984    0.740581322327919    0.718782470572458  0.0000
  Ge     Ge        0.674340907221609    0.278254463032931    0.723466397702544  0.0000
  Ge     Ge        0.174352517842089    0.741647369728919    0.288320127004606  0.0000
  Ge     Ge        0.338286123313753    0.279264984938173    0.292996450742589  0.0000
  Ge     Ge        0.678143422891593    0.275209975559399    0.037750145411798  0.0000
  Ge     Ge        0.833445149853505    0.746842151163705    0.032224086608930  0.0000
  Ge     Ge        0.333439868543826    0.273028920992845    0.979552597222454  0.0000
  Ge     Ge        0.178159105211304    0.744716906600559    0.974033818223039  0.0000
  Ge     Ge        0.359258879764726    0.681702721235452    0.976979039215526  0.0000
  Ge     Ge        0.152516037278667    0.337375177861404    0.979014481320612  0.0000
  Ge     Ge        0.652520547703165    0.682568421239723    0.032751833058242  0.0000
  Ge     Ge        0.859244830592667    0.338145944644749    0.034816494026264  0.0000
  Si     Si        0.058244268356609    0.023220005142349    0.397830717243201  0.0000
  Si     Si        0.453147944067257    0.998409293626074    0.373601223022182  0.0000
  Si     Si        0.953160982422491    0.021440247614867    0.638179350628712  0.0000
  Si     Si        0.558235639455823    0.996674055839062    0.613941165517705  0.0000
  O3     O3        0.091188561407615    0.212794238891045    0.381795805497227  0.0000
  O3     O3        0.417548912370344    0.810683671152339    0.385543497296806  0.0000
  O3     O3        0.917534254522148    0.209144261056749    0.626238285773012  0.0000
  O3     O3        0.591213715086464    0.807119127710688    0.629942892787771  0.0000
  O3     O3        0.887846158833790    0.880321870703062    0.619808011977310  0.0000
  O3     O3        0.625635079675770    0.131776363789778    0.631027035159555  0.0000
  O3     O3        0.125663924368840    0.888163797634878    0.380756115315592  0.0000
  O3     O3        0.387815576620838    0.139490803402393    0.391970700796692  0.0000
  O2     O2        0.024151907038715    0.001204602392768    0.542067042809720  0.0000
  O2     O2        0.524136628605377    0.018696521530118    0.469709576947292  0.0000
  O3     O3        0.989043087254257    0.989491953254574    0.301276020304003  0.0000
  O3     O3        0.484260469442505    0.029575522880324    0.229107252829117  0.0000
  O3     O3        0.984280976891734    0.990295200193297    0.782671994746423  0.0000
  O3     O3        0.489027507786827    0.030328578845329    0.710501448976791  0.0000
  O1     O1        0.631746998771687    0.138910987154150    0.139211915926582  0.0000
  O1     O1        0.876369098837878    0.891038827783970    0.130516319796132  0.0000
  O1     O1        0.376348366365691    0.128794823041072    0.881266207158310  0.0000
  O1     O1        0.131774866752507    0.881048466768799    0.872580760973215  0.0000
  O1     O1        0.424827651665556    0.789958441717118    0.886926479318270  0.0000
  O1     O1        0.089791365509568    0.225857933124280    0.885185683468693  0.0000
  O1     O1        0.589793453309058    0.794083607930932    0.126577731423753  0.0000
  O1     O1        0.924802458016261    0.229901848939943    0.124907271880078  0.0000
  O1     O1        0.522677094477798    0.051446698957527    0.971242584465057  0.0000
  O1     O1        0.022695680544700    0.968498672478424    0.040535064760776  0.0000
  O1     O1        0.160823640331440    0.537969457609856    0.348086794232148  0.0000
  O1     O1        0.351550796824473    0.483963941899181    0.350215443961233  0.0000
  O1     O1        0.851552203868670    0.535867778252971    0.661586277837919  0.0000
  O1     O1        0.660831652752543    0.481936365417575    0.663694060460745  0.0000
  O1     O1        0.242618344680315    0.237910513061095    0.296694001871491  0.0000
  O1     O1        0.269744205832385    0.783690450111284    0.291872680306990  0.0000
  O1     O1        0.769730704931114    0.236168778709076    0.719924118070247  0.0000
  O1     O1        0.742636725066224    0.781979928803993    0.715073227373785  0.0000
  O1     O1        0.120612852837495    0.338164027226868    0.136741015570613  0.0000
  O1     O1        0.390350589016133    0.679627345513250    0.135163980463403  0.0000
  O1     O1        0.890349875369341    0.340157409630400    0.876634487933838  0.0000
  O1     O1        0.620621903070939    0.681790027181849    0.875022219752966  0.0000
  O1     O1        0.868041138189017    0.753662354892777    0.876502175668811  0.0000
  O1     O1        0.644894644193702    0.267696385825275    0.880854985773484  0.0000
  O1     O1        0.144911298946860    0.752219799447381    0.130929543466262  0.0000
  O1     O1        0.368029530763181    0.266189703227806    0.135278052481365  0.0000
  O1     O1        0.664207451802450    0.481620623555521    0.091927633619811  0.0000
  O1     O1        0.847818453961147    0.541923231088197    0.089895799752237  0.0000
  O1     O1        0.347833462128722    0.477936930431468    0.921875561395174  0.0000
  O1     O1        0.164206508687098    0.538319176933542    0.919839401223265  0.0000
  O1     O1        0.773415918653284    0.233015680457658    0.036848768769383  0.0000
  O1     O1        0.738156819660587    0.788090485290794    0.027722938413469  0.0000
  O1     O1        0.238148492876493    0.231832666049762    0.984050787784033  0.0000
  O1     O1        0.273434906428234    0.786858987805547    0.974936892301640  0.0000
