data_c01404.vasp
_audit_creation_method             Generated by GULP
_audit_author_name                 Salvador R. G. Balestra
_symmetry_space_group_name_H-M     'P 1             '
_symmetry_Int_Tables_number        1

loop_
_symmetry_equiv_pos_site_id
_symmetry_equiv_pos_as_xyz
_cell_length_a                       17.4772
_cell_length_b                        7.8347
_cell_length_c                       10.1911
_cell_angle_alpha                   89.9592
_cell_angle_beta                    90.0112
_cell_angle_gamma                   88.2863

loop_
_atom_site_label
_atom_site_type_symbol
_atom_site_fract_x
_atom_site_fract_y
_atom_site_fract_z
_atom_site_charge
  Ge     Ge        0.052090000000021    0.000000000000000    0.372269999999958  0.0000
  Ge     Ge        0.550152493426789    0.998772835467290    0.620148597293559  0.0000
  Ge     Ge        0.552740115194288    0.000634045463262    0.129461801589566  0.0000
  Ge     Ge        0.048711958886269    0.002274068251679    0.872940242907717  0.0000
  Ge     Ge        0.146904558049630    0.312299655067130    0.260626656142545  0.0000
  Ge     Ge        0.358253736334243    0.632699806502128    0.260745718862941  0.0000
  Ge     Ge        0.831875920066422    0.231484686387403    0.696931853790887  0.0000
  Ge     Ge        0.673865889308470    0.713152697511752    0.698508570172359  0.0000
  Ge     Ge        0.856388606113986    0.633152412975368    0.694601032569841  0.0000
  Ge     Ge        0.649274455934012    0.310479718092037    0.695266022993081  0.0000
  Ge     Ge        0.174682576740758    0.712956973378494    0.262119509870922  0.0000
  Ge     Ge        0.330239033929459    0.232572634428469    0.264403297487092  0.0000
  Ge     Ge        0.648044573726549    0.311364020646569    0.014851898459388  0.0000
  Ge     Ge        0.858384208994766    0.633214666515175    0.011786783536552  0.0000
  Ge     Ge        0.333795682571360    0.230694359180959    0.945564975262621  0.0000
  Ge     Ge        0.174117453327502    0.712498665349230    0.944835384477869  0.0000
  Ge     Ge        0.356559197835726    0.632733043304055    0.942990567076072  0.0000
  Ge     Ge        0.151467522663767    0.310118796202427    0.940003430463997  0.0000
  Ge     Ge        0.674941075125308    0.714015124393378    0.016455103023854  0.0000
  Ge     Ge        0.831446428614422    0.231316780930100    0.016271818994404  0.0000
  Si     Si        0.446186127977440    0.944146243782644    0.374758027936678  0.0000
  Si     Si        0.948343389311115    0.944497463563893    0.620849112730606  0.0000
  Si     Si        0.947901295928993    0.943319908591283    0.125631027813416  0.0000
  Si     Si        0.452513112604352    0.939694713069137    0.875865442121105  0.0000
  O1     O1        0.078889667383427    0.205124936691889    0.346095320646829  0.0000
  O3     O3        0.424673194723624    0.750521010717336    0.344434954088578  0.0000
  O3     O3        0.880283236941656    0.084585043148687    0.598577367736091  0.0000
  O1     O1        0.624631605800446    0.853963546511261    0.599516678240421  0.0000
  O3     O3        0.918074628369919    0.754730313159819    0.601763118393927  0.0000
  O1     O1        0.584531400071649    0.199698860767883    0.604277543308307  0.0000
  O1     O1        0.130277651472966    0.866270548145010    0.356157571516723  0.0000
  O3     O3        0.373824016212506    0.071044634924089    0.354310702423603  0.0000
  O3     O3        0.021131713273622    0.981511154819795    0.533163218054890  0.0000
  O3     O3        0.471999903417601    0.958242128564484    0.525617337338575  0.0000
  O3     O3        0.975951638636704    0.944632310052619    0.275208996879563  0.0000
  O3     O3        0.518746306050740    0.998428270192194    0.288653567938226  0.0000
  O3     O3        0.972550732101366    0.963126883672252    0.773883210731779  0.0000
  O3     O3        0.523253140819098    0.976124251613573    0.784010629784642  0.0000
  O1     O1        0.580613152906961    0.205174529964869    0.101328556704092  0.0000
  O3     O3        0.925799210272646    0.750265363016640    0.092600552546997  0.0000
  O3     O3        0.385253353841515    0.082680471763956    0.854098409467701  0.0000
  O1     O1        0.122041955871831    0.854202967491512    0.851627450956147  0.0000
  O3     O3        0.419371008160451    0.752470230355785    0.852153328825835  0.0000
  O1     O1        0.086452125836670    0.200135377836880    0.850431850197365  0.0000
  O1     O1        0.630275371609712    0.863334832909354    0.114113747934476  0.0000
  O3     O3        0.875422845313080    0.072610231970227    0.108606904936924  0.0000
  O3     O3        0.479046791288442    0.943861279816420    0.027774037726895  0.0000
  O3     O3        0.017503589306764    0.001638526920402    0.034787288048052  0.0000
  O1     O1        0.157812458521516    0.512692095411553    0.323588529620409  0.0000
  O1     O1        0.348659813637103    0.432218715535136    0.326548849881707  0.0000
  O1     O1        0.846411175802585    0.432715427262148    0.632576664136782  0.0000
  O1     O1        0.661480510083983    0.510808600461543    0.636004499174651  0.0000
  O1     O1        0.233774601895340    0.201962792127983    0.266643949613820  0.0000
  O1     O1        0.271571343588308    0.741163551007368    0.261728194660317  0.0000
  O1     O1        0.735635214661867    0.196814184108695    0.695844112045196  0.0000
  O1     O1        0.770361209152350    0.745704438108481    0.699584316737221  0.0000
  O1     O1        0.120450750158466    0.331915957905327    0.099506757660176  0.0000
  O1     O1        0.387859692458097    0.605905035426246    0.101795849919273  0.0000
  O1     O1        0.863382309478741    0.222858453718301    0.856855011125704  0.0000
  O1     O1        0.641688218294953    0.728265006134733    0.857948047390975  0.0000
  O1     O1        0.888677677026020    0.607998506972810    0.852642083844468  0.0000
  O1     O1        0.618385340510661    0.328368077791323    0.854705936460895  0.0000
  O1     O1        0.141322381375856    0.727455114490045    0.103810175922689  0.0000
  O1     O1        0.363720637305834    0.223160767442021    0.106229649436010  0.0000
  O1     O1        0.659088844705896    0.512309696171567    0.076314125147743  0.0000
  O1     O1        0.849540486653871    0.432209456990994    0.076795490224516  0.0000
  O1     O1        0.347537981144234    0.431903173725428    0.880705052835057  0.0000
  O1     O1        0.163390154715131    0.510727071744016    0.880461321833789  0.0000
  O1     O1        0.734818077357587    0.200959661504101    0.018781714352142  0.0000
  O1     O1        0.771924561461303    0.742333718628261    0.014847939383622  0.0000
  O1     O1        0.237546662505401    0.195528268985178    0.941352019418305  0.0000
  O1     O1        0.270581185515459    0.745861905573270    0.945889772036930  0.0000
