data_c00001.vasp
_audit_creation_method             Generated by GULP
_audit_author_name                 Salvador R. G. Balestra
_symmetry_space_group_name_H-M     'P 1             '
_symmetry_Int_Tables_number        1

loop_
_symmetry_equiv_pos_site_id
_symmetry_equiv_pos_as_xyz
_cell_length_a                        9.0355
_cell_length_b                        7.6241
_cell_length_c                       10.3602
_cell_angle_alpha                   90.0001
_cell_angle_beta                   108.7229
_cell_angle_gamma                   89.9999

loop_
_atom_site_label
_atom_site_type_symbol
_atom_site_fract_x
_atom_site_fract_y
_atom_site_fract_z
_atom_site_charge
  Si     Si        0.313819999999964    0.296860000000038    0.309830000000034  0.0000
  Si     Si        0.696323154071144    0.296856644440107    0.699217532423574  0.0000
  Si     Si        0.696325807723430    0.698995965237131    0.699218003097422  0.0000
  Si     Si        0.313822654964139    0.698999060971818    0.309830489503405  0.0000
  Si     Si        0.336339803192769    0.296974236973121    0.616676436323997  0.0000
  Si     Si        0.673803347411331    0.296969340654808    0.392371353248319  0.0000
  Si     Si        0.673805896396337    0.698881755359937    0.392371753912557  0.0000
  Si     Si        0.336342545281007    0.698886488068495    0.616676983634623  0.0000
  Si     Si        0.883054987218510    0.997925936917460    0.354429315547671  0.0000
  Si     Si        0.127091036192286    0.997929937517570    0.654619705250487  0.0000
  Si     Si        0.092841632652851    0.997928807934460    0.163334188481562  0.0000
  Si     Si        0.917304216188804    0.997927020175532    0.845714381445034  0.0000
  O2     O2        0.298497212304878    0.254052672178717    0.457155819596260  0.0000
  O2     O2        0.711645365789596    0.254046376935682    0.551891754553454  0.0000
  O2     O2        0.711647913751210    0.741804099676041    0.551892158291686  0.0000
  O2     O2        0.298500479815823    0.741808870068795    0.457156392672919  0.0000
  O2     O2        0.266265386985400    0.497929561391690    0.269428324689762  0.0000
  O2     O2        0.743880355632079    0.497926240208586    0.739619212059697  0.0000
  O2     O2        0.491181984106848    0.263678302150063    0.313855813805877  0.0000
  O2     O2        0.518960399119615    0.263679229296367    0.695191689319058  0.0000
  O2     O2        0.518963944935189    0.732177528516119    0.695192586331863  0.0000
  O2     O2        0.491185362745935    0.732176537047567    0.313856142763660  0.0000
  O2     O2        0.199823682532949    0.170941884741893    0.199273600218452  0.0000
  O2     O2        0.810317764996461    0.170937028487082    0.809773935418541  0.0000
  O2     O2        0.810322572628542    0.824913701783103    0.809774490764665  0.0000
  O2     O2        0.199828056736136    0.824918664709660    0.199274071643451  0.0000
  O2     O2        0.292428836858999    0.497930649588335    0.636165777733526  0.0000
  O2     O2        0.717717036790021    0.497925257150337    0.372882925105004  0.0000
  O2     O2        0.234379735274532    0.171236585541830    0.678041991946025  0.0000
  O2     O2        0.775761528664800    0.171229354867617    0.331005130480409  0.0000
  O2     O2        0.775766242558873    0.824619224911022    0.331006320765562  0.0000
  O2     O2        0.234384399092307    0.824626551587025    0.678043167893760  0.0000
  O2     O2        0.005072556054237    0.997927920459975    0.504524765023751  0.0000
  O2     O2        0.966385785078947    0.997926738495942    0.241009339393921  0.0000
  O2     O2        0.043761290467502    0.997929218333453    0.768040430824926  0.0000
  O2     O2        0.005072038204587    0.997927940348466    0.004524331315206  0.0000
