data_c00019.vasp
_audit_creation_method             Generated by GULP
_audit_author_name                 Salvador R. G. Balestra
_symmetry_space_group_name_H-M     'P 1             '
_symmetry_Int_Tables_number        1

loop_
_symmetry_equiv_pos_site_id
_symmetry_equiv_pos_as_xyz
_cell_length_a                       17.0611
_cell_length_b                        7.5931
_cell_length_c                       10.2804
_cell_angle_alpha                   90.6862
_cell_angle_beta                    90.8136
_cell_angle_gamma                   89.7319

loop_
_atom_site_label
_atom_site_type_symbol
_atom_site_fract_x
_atom_site_fract_y
_atom_site_fract_z
_atom_site_charge
  Ge     Ge        0.556730000000016    0.000000000000000    0.122129999999970  0.0000
  Ge     Ge        0.161868418256398    0.272980767309547    0.291171906801181  0.0000
  Si     Si        0.044667904845341    0.989349423483737    0.376852495043199  0.0000
  Si     Si        0.448249164322056    0.000188882353123    0.375555076489436  0.0000
  Si     Si        0.944492300804821    0.975127917757991    0.630986581599659  0.0000
  Si     Si        0.544605439366891    0.996345975606707    0.637854015101822  0.0000
  Si     Si        0.946617931658099    0.987714834915097    0.115552223685056  0.0000
  Si     Si        0.440852428094369    0.988127448402183    0.881644220564006  0.0000
  Si     Si        0.056087323022579    0.983917409217799    0.875673570641069  0.0000
  Si     Si        0.332147362181876    0.714102065855855    0.289779114319762  0.0000
  Si     Si        0.829363905434715    0.267928783158782    0.726453755778734  0.0000
  Si     Si        0.662654760679443    0.708327149324837    0.734307730955773  0.0000
  Si     Si        0.842501870539689    0.671662515316381    0.724635013797436  0.0000
  Si     Si        0.649594394894060    0.301187480508223    0.734687270110176  0.0000
  Si     Si        0.149930009102394    0.685791385325904    0.286286487088107  0.0000
  Si     Si        0.345734652376922    0.309523597336284    0.295114834056224  0.0000
  Si     Si        0.652437380012581    0.317786087767600    0.037032902956979  0.0000
  Si     Si        0.853274874647865    0.668498427391104    0.028135722734523  0.0000
  Si     Si        0.345924988235041    0.304386333133154    0.989880443731139  0.0000
  Si     Si        0.149819137290295    0.672669960468276    0.984401842587197  0.0000
  Si     Si        0.331353716191164    0.704110373594529    0.986553324257768  0.0000
  Si     Si        0.165163372165395    0.268761805499840    0.981980533633649  0.0000
  Si     Si        0.673300685393071    0.715881053837171    0.036481472180074  0.0000
  Si     Si        0.832789086417038    0.273245315541740    0.030720904191085  0.0000
  O3     O3        0.106262022340674    0.146274852406860    0.390854068459642  0.0000
  O2     O2        0.379976565969039    0.852484207518653    0.378806503680676  0.0000
  O2     O2        0.881115762140985    0.131957523376767    0.643956945416206  0.0000
  O2     O2        0.607330894661310    0.838264775051984    0.652566809559894  0.0000
  O2     O2        0.900543741281197    0.788438437707573    0.640382664293556  0.0000
  O2     O2        0.588203929087344    0.183729077932928    0.652884153621222  0.0000
  O2     O2        0.094004623032121    0.808057115497020    0.372779422744993  0.0000
  O2     O2        0.409280373148523    0.194747213975970    0.375051873479350  0.0000
  O2     O2        0.982595004457461    0.985549293985301    0.490782947749636  0.0000
  O2     O2        0.507746220680343    0.983173192861834    0.495140798548839  0.0000
  O2     O2        0.997820460271731    0.020013273347756    0.242935998830290  0.0000
  O3     O3        0.496897370216247    0.962553895969660    0.247875115865955  0.0000
  O2     O2        0.014178950050288    0.992894233347147    0.736414201509740  0.0000
  O2     O2        0.472697436636691    0.981716813086193    0.735975424334556  0.0000
  O3     O3        0.593610509855375    0.211560617226895    0.124277962587794  0.0000
  O2     O2        0.913692572342961    0.788446960936877    0.110807078524235  0.0000
  O2     O2        0.406120042584806    0.182778661021451    0.911442291529845  0.0000
  O2     O2        0.093941337542577    0.789753668933042    0.892740205179371  0.0000
  O2     O2        0.373411095167548    0.841448814590275    0.894608818416035  0.0000
  O2     O2        0.122560675607450    0.134332050317955    0.882457250396225  0.0000
  O3     O3        0.635598607450512    0.856482794324646    0.130263670867014  0.0000
  O2     O2        0.875400921140793    0.127579060844912    0.117644680020123  0.0000
  O3     O3        0.510470851420705    0.943040713850636    0.978799639758279  0.0000
  O2     O2        0.995585321751438    0.028747506972578    0.988335699071263  0.0000
  O3     O3        0.131041919203388    0.486693706040669    0.314789098422468  0.0000
  O2     O2        0.361207479868336    0.516491037603193    0.321523211732959  0.0000
  O2     O2        0.857057796093923    0.465541253259357    0.693996597479857  0.0000
  O2     O2        0.633916408544882    0.507863116358491    0.710053245310881  0.0000
  O3     O3        0.259411669006904    0.258282790894863    0.336524444830910  0.0000
  O2     O2        0.240342727058429    0.731274791172666    0.321423625826219  0.0000
  O2     O2        0.737384789019675    0.248965868741607    0.690436640667243  0.0000
  O2     O2        0.752823369862042    0.723867513905237    0.689727039843461  0.0000
  O3     O3        0.153210804072551    0.210942713233634    0.129477260337315  0.0000
  O2     O2        0.344985201112410    0.756599934911102    0.137806229994256  0.0000
  O2     O2        0.840467978794955    0.225936801185509    0.878430712808330  0.0000
  O2     O2        0.659009208260494    0.764752412335278    0.885254786443402  0.0000
  O2     O2        0.862244621839298    0.711064260343009    0.875866457871059  0.0000
  O2     O2        0.637725908359604    0.259656273499269    0.886492888758880  0.0000
  O2     O2        0.134194709602782    0.726729067092941    0.133815339294817  0.0000
  O2     O2        0.357255688471699    0.264898317025854    0.142386062074241  0.0000
  O2     O2        0.635825348349092    0.523921405337508    0.058950319998021  0.0000
  O2     O2        0.872228413632663    0.464291125548467    0.056956831476075  0.0000
  O2     O2        0.365406973318896    0.507826815906754    0.960940077049808  0.0000
  O2     O2        0.131137197767120    0.466480468735521    0.962187006437190  0.0000
  O2     O2        0.742705561002470    0.274900855863402    0.073026374244676  0.0000
  O2     O2        0.765389300561013    0.711448066711689    0.070208545495782  0.0000
  O2     O2        0.256934784633961    0.263293675106577    0.947724552905808  0.0000
  O2     O2        0.239685621656796    0.709877848334494    0.950490770456039  0.0000
