data_c00023.vasp
_audit_creation_method             Generated by GULP
_audit_author_name                 Salvador R. G. Balestra
_symmetry_space_group_name_H-M     'P 1             '
_symmetry_Int_Tables_number        1

loop_
_symmetry_equiv_pos_site_id
_symmetry_equiv_pos_as_xyz
_cell_length_a                       16.9588
_cell_length_b                        7.5682
_cell_length_c                       10.3434
_cell_angle_alpha                   90.7099
_cell_angle_beta                    90.0276
_cell_angle_gamma                   89.4307

loop_
_atom_site_label
_atom_site_type_symbol
_atom_site_fract_x
_atom_site_fract_y
_atom_site_fract_z
_atom_site_charge
  Ge     Ge        0.556730000000016    0.000000000000000    0.122129999999970  0.0000
  Ge     Ge        0.647276824876838    0.325850338795806    0.017695100999309  0.0000
  Si     Si        0.048226592331484    0.970607981634476    0.355516729559219  0.0000
  Si     Si        0.450399555510686    0.975357862205257    0.370587109984940  0.0000
  Si     Si        0.951941105523923    0.960353198917646    0.616797567210987  0.0000
  Si     Si        0.549571640057658    0.980429144199877    0.626621346564417  0.0000
  Si     Si        0.944948241611689    0.976183781354620    0.102164160371740  0.0000
  Si     Si        0.446299911554356    0.964203387356776    0.879016029535875  0.0000
  Si     Si        0.058310755990046    0.966512247187399    0.865778422406245  0.0000
  Si     Si        0.165129582977210    0.254332356513872    0.267469988466608  0.0000
  Si     Si        0.334389459400118    0.688961038737160    0.269444604202864  0.0000
  Si     Si        0.832285610147776    0.250702999351433    0.710917607478533  0.0000
  Si     Si        0.668883738347071    0.697605768341534    0.702993955028392  0.0000
  Si     Si        0.850253225004227    0.654939552726955    0.701736170670038  0.0000
  Si     Si        0.651921129710332    0.290076937539027    0.711118322842754  0.0000
  Si     Si        0.152973034640686    0.661223759220534    0.268512668760668  0.0000
  Si     Si        0.347059042506390    0.281735608616147    0.270181533161574  0.0000
  Si     Si        0.854364506553183    0.658175741623886    0.001322768286788  0.0000
  Si     Si        0.350689379295436    0.283207029402878    0.970064738577514  0.0000
  Si     Si        0.152000423074917    0.651453565168402    0.967453900153354  0.0000
  Si     Si        0.334071422163866    0.683568899546939    0.967883505344782  0.0000
  Si     Si        0.168198086737815    0.251001321391272    0.966265317289638  0.0000
  Si     Si        0.672451430337974    0.726466189474318    0.003559143488199  0.0000
  Si     Si        0.831550486170948    0.265494892256009    0.014239078101411  0.0000
  O2     O2        0.113347766852236    0.124940464302318    0.353432207922892  0.0000
  O2     O2        0.386282176650723    0.820650560389252    0.355284782758781  0.0000
  O2     O2        0.884456450015272    0.110037304833736    0.631549747252123  0.0000
  O2     O2        0.616870608194282    0.827471336322716    0.614075301162023  0.0000
  O2     O2        0.910432117879576    0.768654665492095    0.616780033280593  0.0000
  O2     O2        0.591339984602665    0.171474651617204    0.627291171057831  0.0000
  O2     O2        0.093073056182933    0.781351513292517    0.352031147036015  0.0000
  O2     O2        0.407312152026670    0.165094263351142    0.353029301862681  0.0000
  O2     O2        0.996913053667684    0.986639426196522    0.483641919292447  0.0000
  O2     O2        0.487710310359770    0.968222296375664    0.511485565764203  0.0000
  O2     O2        0.989875915394581    0.993283902455154    0.236014841394194  0.0000
  O3     O3        0.521539050376118    0.949769562788775    0.271599824817726  0.0000
  O2     O2        0.016266971193752    0.978864821712524    0.729100917023940  0.0000
  O2     O2        0.499882889086869    0.946180998519823    0.754564656565658  0.0000
  O1     O1        0.579853839001213    0.217705723629230    0.109126635784943  0.0000
  O2     O2        0.910240049672305    0.779285554613965    0.089288641320601  0.0000
  O2     O2        0.409744411776637    0.162964303099171    0.885358894479574  0.0000
  O2     O2        0.094101132535966    0.769524139541218    0.881174105540300  0.0000
  O2     O2        0.376452111241975    0.820057831757633    0.874651890400975  0.0000
  O2     O2        0.127851545475208    0.110137859724460    0.871618088484629  0.0000
  O3     O3        0.644884431748314    0.888037642805974    0.090454864658081  0.0000
  O2     O2        0.875164808598514    0.121048683230476    0.101425493698838  0.0000
  O3     O3        0.494206846580861    0.919038376378129    0.006074928838027  0.0000
  O2     O2        0.000236106857517    0.018499905933715    0.981688038260856  0.0000
  O2     O2        0.138096981434723    0.455697395847619    0.296958060765528  0.0000
  O2     O2        0.361692220059263    0.488350690616872    0.298440610665592  0.0000
  O2     O2        0.864890593679577    0.446006045272339    0.680300467656747  0.0000
  O2     O2        0.637055304033662    0.498254775454761    0.686238097279879  0.0000
  O2     O2        0.257281369534900    0.231426861994300    0.303422607022602  0.0000
  O2     O2        0.242446870046544    0.712067406778864    0.305571332487952  0.0000
  O2     O2        0.741079729057404    0.238571742048102    0.667675963319008  0.0000
  O2     O2        0.760624475422486    0.704279497975715    0.661844364315397  0.0000
  O2     O2        0.154021179603939    0.205065609959711    0.116394013799040  0.0000
  O2     O2        0.346018763112835    0.734220876506190    0.118786577235939  0.0000
  O2     O2        0.835035786437399    0.209089915622956    0.863002850980942  0.0000
  O2     O2        0.661768695447694    0.764488741086124    0.850805566127384  0.0000
  O2     O2        0.867393958885228    0.705797201450314    0.851098635215946  0.0000
  O3     O3        0.637131168294039    0.249884854369667    0.859918896666512  0.0000
  O2     O2        0.137406881398723    0.699849408973173    0.117714215002459  0.0000
  O2     O2        0.366401592263800    0.237749753680422    0.120240051224199  0.0000
  O3     O3        0.626139051088252    0.547611213162964    0.034187143726362  0.0000
  O2     O2        0.875592377382411    0.454292935111351    0.029237935424432  0.0000
  O2     O2        0.369501568378568    0.487140336316470    0.942564219232255  0.0000
  O2     O2        0.133509282900491    0.446402546313470    0.938805823509262  0.0000
  O3     O3        0.743175918206653    0.280151131393009    0.063712846137755  0.0000
  O2     O2        0.763640949920881    0.689298883019045    0.036443786623165  0.0000
  O2     O2        0.260722743279931    0.242799908714420    0.934680304027759  0.0000
  O2     O2        0.242179382535389    0.690067507935872    0.931935396084707  0.0000
