data_c00016.vasp
_audit_creation_method             Generated by GULP
_audit_author_name                 Salvador R. G. Balestra
_symmetry_space_group_name_H-M     'P 1             '
_symmetry_Int_Tables_number        1

loop_
_symmetry_equiv_pos_site_id
_symmetry_equiv_pos_as_xyz
_cell_length_a                       16.8286
_cell_length_b                        7.5477
_cell_length_c                       10.4948
_cell_angle_alpha                   89.9993
_cell_angle_beta                    90.0001
_cell_angle_gamma                   90.5042

loop_
_atom_site_label
_atom_site_type_symbol
_atom_site_fract_x
_atom_site_fract_y
_atom_site_fract_z
_atom_site_charge
  Ge     Ge        0.556730000000016    0.000000000000000    0.122129999999970  0.0000
  Ge     Ge        0.942392929536362    0.027783550161951    0.122064750719738  0.0000
  Si     Si        0.047383651719621    0.019002218937202    0.375415341870661  0.0000
  Si     Si        0.451767481685826    0.008801446989767    0.375461408298186  0.0000
  Si     Si        0.951944526964215    0.026603568534944    0.634548676288494  0.0000
  Si     Si        0.547191396189708    0.001246295000474    0.634590393440370  0.0000
  Si     Si        0.443738059488200    0.015514438377872    0.884050416961016  0.0000
  Si     Si        0.055393358876677    0.012340928190909    0.883989483263439  0.0000
  Si     Si        0.150738539560369    0.326783851218808    0.280058925797089  0.0000
  Si     Si        0.348415477368183    0.701037456670081    0.280042923714567  0.0000
  Si     Si        0.851240798777056    0.336778434159256    0.720688269245142  0.0000
  Si     Si        0.647893853898809    0.691051804824793    0.720674677960768  0.0000
  Si     Si        0.830367401654926    0.743106746970787    0.720915455910367  0.0000
  Si     Si        0.668761193349659    0.284728347373663    0.720884813526281  0.0000
  Si     Si        0.165148285826592    0.735165610338723    0.278557234002383  0.0000
  Si     Si        0.333997446766610    0.292657339582460    0.278532594519689  0.0000
  Si     Si        0.673618518618150    0.279570000705361    0.016943388647864  0.0000
  Si     Si        0.825489364033283    0.748223122905026    0.016976095205899  0.0000
  Si     Si        0.331946469410382    0.294547328548845    0.982182643268327  0.0000
  Si     Si        0.167176678389599    0.733308297353228    0.982218637792135  0.0000
  Si     Si        0.351434679997898    0.695807844173055    0.984697772692404  0.0000
  Si     Si        0.147697645920905    0.332040848448252    0.984704031343421  0.0000
  Si     Si        0.643039626217988    0.675366379080982    0.016044073072534  0.0000
  Si     Si        0.856074410918208    0.352428463610804    0.016049184128096  0.0000
  O2     O2        0.090338575911757    0.210853406148350    0.364107033781076  0.0000
  O2     O2        0.408809972650944    0.816959127958228    0.364102562756836  0.0000
  O2     O2        0.912423905432207    0.221269546651896    0.637666276499005  0.0000
  O2     O2        0.586710098043842    0.806577258372263    0.637660083670434  0.0000
  O2     O2        0.881606680590156    0.879573166202852    0.636420809511453  0.0000
  O2     O2        0.617533920588298    0.148274786082905    0.636353800193693  0.0000
  O2     O2        0.113898222119091    0.866619425190699    0.364269368057393  0.0000
  O2     O2        0.385272818875428    0.161200713388546    0.364198741221634  0.0000
  O2     O2        0.004174302241643    0.005089827595637    0.509646542550962  0.0000
  O2     O2        0.494863286402262    0.022734380986132    0.509789679283382  0.0000
  O3     O3        0.980926246198444    0.992842002081497    0.269480815723219  0.0000
  O3     O3        0.518301174976442    0.034861278831492    0.269637950744716  0.0000
  O2     O2        0.011384024670997    0.996325552826770    0.751002795971573  0.0000
  O2     O2        0.487864149213028    0.031582078977134    0.751176304018108  0.0000
  O3     O3        0.641010060948539    0.131452929318280    0.109132829480491  0.0000
  O3     O3        0.858108953593177    0.896316605506512    0.109171579253555  0.0000
  O2     O2        0.370913633896764    0.154395441336191    0.887493831881974  0.0000
  O2     O2        0.128222778507515    0.873480876141194    0.887533505658085  0.0000
  O2     O2        0.410512276596641    0.814591967771839    0.900304572486541  0.0000
  O2     O2        0.088595698212626    0.213264380256325    0.900354955997827  0.0000
  O3     O3        0.581884374083369    0.780310691662004    0.102066965955657  0.0000
  O3     O3        0.917213953413777    0.247476219418866    0.102100505537122  0.0000
  O3     O3        0.497656095977505    0.074029948360155    0.000902903248144  0.0000
  O3     O3        0.001363169009653    0.953779315760137    0.000694321621555  0.0000
  O2     O2        0.137585366891770    0.533925784284906    0.307635783104799  0.0000
  O2     O2        0.361566383524976    0.493891997347439    0.307613201794402  0.0000
  O2     O2        0.863049975302863    0.545614591376733    0.694348019306066  0.0000
  O2     O2        0.636082607263021    0.482222974150005    0.694312264821222  0.0000
  O2     O2        0.240919781744992    0.271929639026434    0.311942006704449  0.0000
  O2     O2        0.258232806584408    0.755888576662061    0.311910796738674  0.0000
  O2     O2        0.761631782809231    0.277970830035892    0.683220481265221  0.0000
  O2     O2        0.737502754525073    0.749864953784714    0.683208794752907  0.0000
  O2     O2        0.130532379435377    0.284639471483324    0.132523176715715  0.0000
  O2     O2        0.368633365303512    0.743193442464571    0.132510857537574  0.0000
  O2     O2        0.870064361672238    0.296985009216760    0.868502288024676  0.0000
  O2     O2        0.629075865848299    0.730814026103745    0.868492602485253  0.0000
  O2     O2        0.837911626925127    0.799670649121711    0.868392843521926  0.0000
  O2     O2        0.661187489602947    0.228145577848812    0.868358642541411  0.0000
  O2     O2        0.152195321963313    0.783425575453090    0.130198482133277  0.0000
  O2     O2        0.346910012042000    0.244427133410232    0.130165342544363  0.0000
  O2     O2        0.629038337421091    0.466664960733263    0.038266131019252  0.0000
  O2     O2        0.870070298866093    0.561125067798146    0.038281650693804  0.0000
  O2     O2        0.368478489366008    0.490121666733311    0.956596994251122  0.0000
  O2     O2        0.130647174870717    0.537733634738541    0.956625297265233  0.0000
  O2     O2        0.766064547261536    0.300926377895603    0.050933678717439  0.0000
  O2     O2        0.733043551398540    0.726864351027929    0.050977465269596  0.0000
  O2     O2        0.238608730129506    0.290633536247720    0.952496627262938  0.0000
  O2     O2        0.260515501353869    0.737217593351576    0.952555792658779  0.0000
