data_c00036.vasp
_audit_creation_method             Generated by GULP
_audit_author_name                 Salvador R. G. Balestra
_symmetry_space_group_name_H-M     'P 1             '
_symmetry_Int_Tables_number        1

loop_
_symmetry_equiv_pos_site_id
_symmetry_equiv_pos_as_xyz
_cell_length_a                       17.0536
_cell_length_b                        7.6067
_cell_length_c                       10.2898
_cell_angle_alpha                   90.5237
_cell_angle_beta                    90.0841
_cell_angle_gamma                   89.3885

loop_
_atom_site_label
_atom_site_type_symbol
_atom_site_fract_x
_atom_site_fract_y
_atom_site_fract_z
_atom_site_charge
  Ge     Ge        0.160189999999943    0.293909999999983    0.273440000000051  0.0000
  Ge     Ge        0.339835308011538    0.243219515628151    0.958985316796724  0.0000
  Si     Si        0.056101786291040    0.985232112047705    0.353252529524624  0.0000
  Si     Si        0.460918110722014    0.963071171276040    0.354244766050513  0.0000
  Si     Si        0.960993901111754    0.959878189794546    0.613863710615483  0.0000
  Si     Si        0.561111014259211    0.956553789516018    0.612744198810843  0.0000
  Si     Si        0.562039705640231    0.970738292366182    0.100957271170458  0.0000
  Si     Si        0.951207737348300    0.963183964231736    0.100469854211545  0.0000
  Si     Si        0.451517315529161    0.955633790829184    0.861122177061780  0.0000
  Si     Si        0.065656692689958    0.972578206128983    0.864397890124705  0.0000
  Si     Si        0.356874446755481    0.659548038242094    0.260389570295850  0.0000
  Si     Si        0.854554540341139    0.265803670668424    0.703195155500336  0.0000
  Si     Si        0.666577670375693    0.653247349938616    0.695723522090545  0.0000
  Si     Si        0.847114249401251    0.670181188784440    0.704057602537926  0.0000
  Si     Si        0.673502517558435    0.249388513727009    0.699141037946573  0.0000
  Si     Si        0.176410195318673    0.702458059004977    0.263672674675890  0.0000
  Si     Si        0.342652788892607    0.252753506958553    0.269179008754304  0.0000
  Si     Si        0.672118945848614    0.256449606983558    0.002135834096218  0.0000
  Si     Si        0.841740335075461    0.674903262895215    0.007305999182254  0.0000
  Si     Si        0.177361877956181    0.685653459093097    0.960318266475419  0.0000
  Si     Si        0.359229481234636    0.644879110428372    0.959694298297380  0.0000
  Si     Si        0.157405090927316    0.289294634596520    0.961468408037047  0.0000
  Si     Si        0.660839831253202    0.656651970138577    0.998835656316944  0.0000
  Si     Si        0.853413977950247    0.274845364104314    0.005712175455077  0.0000
  O3     O3        0.090655250616288    0.179215008003551    0.358141139882858  0.0000
  O2     O2        0.415682736142223    0.778114713810875    0.344562967268163  0.0000
  O2     O2        0.912334871228405    0.142846295644842    0.619299833607798  0.0000
  O2     O2        0.610606106066304    0.774464421829817    0.607947021465209  0.0000
  O2     O2        0.901337436162247    0.797895345566244    0.622107469507766  0.0000
  O2     O2        0.621240929755777    0.118911318253104    0.613391021871853  0.0000
  O2     O2        0.131394462059490    0.854848053648721    0.342977325939594  0.0000
  O2     O2        0.399910144280409    0.125645239187101    0.350631000954039  0.0000
  O2     O2        0.005947878977686    0.943742150555436    0.479242570312507  0.0000
  O2     O2        0.505271340232450    0.969546502287921    0.490126143238551  0.0000
  O2     O2        0.999295615694185    0.953287171695427    0.231754606508046  0.0000
  O2     O2        0.525717519650932    0.979420506658401    0.242920927033577  0.0000
  O2     O2        0.025696318502101    0.951399901474964    0.725717346382173  0.0000
  O2     O2        0.508132522075504    0.963903563482454    0.740017574291651  0.0000
  O2     O2        0.626391077902858    0.123076955390848    0.092513575032831  0.0000
  O2     O2        0.886353743882375    0.810711521078938    0.099971286844100  0.0000
  O3     O3        0.382365461991240    0.096807127003867    0.852442674468868  0.0000
  O2     O2        0.137282689025564    0.832313685384135    0.870490859756667  0.0000
  O2     O2        0.414827394477897    0.761682986920749    0.870194106743648  0.0000
  O2     O2        0.095840125053841    0.171691484543855    0.880344017440536  0.0000
  O2     O2        0.601762527191426    0.779469647871180    0.079770157721939  0.0000
  O2     O2        0.909462581824354    0.154363237906050    0.093268716495359  0.0000
  O2     O2        0.496059823473756    0.009789957407337    0.993988379713209  0.0000
  O2     O2        0.005992649964863    0.924969837774303    0.977793066814794  0.0000
  O3     O3        0.140777940083079    0.515017317661785    0.295559287518435  0.0000
  O2     O2        0.374270846293053    0.453040739096338    0.280105306869578  0.0000
  O2     O2        0.873136614361680    0.469056924484736    0.675263197498267  0.0000
  O2     O2        0.648279442394697    0.449341504503922    0.667182064747651  0.0000
  O3     O3        0.254962681606748    0.248073616943250    0.323809190450773  0.0000
  O2     O2        0.268016094941635    0.703862007048636    0.303995803628037  0.0000
  O2     O2        0.765054528485827    0.221995833725742    0.665194059012415  0.0000
  O2     O2        0.756660591608559    0.695479916297716    0.662089043283959  0.0000
  O3     O3        0.151528946748009    0.237632953428881    0.111584025365153  0.0000
  O2     O2        0.369177028013155    0.707424124484910    0.109505647995697  0.0000
  O2     O2        0.868800638486690    0.226181123604086    0.855072002170332  0.0000
  O2     O2        0.649981440615321    0.698023602984916    0.846705194538371  0.0000
  O2     O2        0.855726905980205    0.718055847978125    0.856156796472096  0.0000
  O2     O2        0.660091828138150    0.207563545290657    0.850759584452202  0.0000
  O2     O2        0.169989864414049    0.743637338873810    0.110494723842847  0.0000
  O3     O3        0.342314134301672    0.186989578770573    0.120550402776713  0.0000
  O2     O2        0.640423537794998    0.454410948550234    0.028009312261345  0.0000
  O2     O2        0.873017815833832    0.477845012388607    0.035587968903105  0.0000
  O3     O3        0.384003050747871    0.445117021518088    0.941275861534236  0.0000
  O2     O2        0.136276569952380    0.496273502351288    0.941818956448602  0.0000
  O2     O2        0.763184103746027    0.240003296518190    0.039775349786503  0.0000
  O2     O2        0.750006935287014    0.693206280179476    0.040622638695797  0.0000
  O3     O3        0.243774432081316    0.253929704235500    0.909047349447476  0.0000
  O2     O2        0.268191764031314    0.670534647050735    0.919464024052524  0.0000
