data_c00043.vasp
_audit_creation_method             Generated by GULP
_audit_author_name                 Salvador R. G. Balestra
_symmetry_space_group_name_H-M     'P 1             '
_symmetry_Int_Tables_number        1

loop_
_symmetry_equiv_pos_site_id
_symmetry_equiv_pos_as_xyz
_cell_length_a                       17.0275
_cell_length_b                        7.6179
_cell_length_c                       10.2800
_cell_angle_alpha                   89.9605
_cell_angle_beta                    90.0742
_cell_angle_gamma                   90.0036

loop_
_atom_site_label
_atom_site_type_symbol
_atom_site_fract_x
_atom_site_fract_y
_atom_site_fract_z
_atom_site_charge
  Ge     Ge        0.660660000000007    0.294089999999983    0.017439999999965  0.0000
  Ge     Ge        0.329301406195910    0.294093506660488    0.967343442080581  0.0000
  Si     Si        0.042397721783262    0.012635218918249    0.360096657808691  0.0000
  Si     Si        0.442101982649597    0.997782220773496    0.366155501254763  0.0000
  Si     Si        0.947561938699076    0.012636607825192    0.624687395719690  0.0000
  Si     Si        0.547857749625747    0.997780315199927    0.618609817876582  0.0000
  Si     Si        0.548407499712728    0.009811446429697    0.113962798638195  0.0000
  Si     Si        0.937520168382001    0.013206745764248    0.109479848802526  0.0000
  Si     Si        0.441553042394575    0.009814413444182    0.870799665235769  0.0000
  Si     Si        0.052440157837280    0.013207466584666    0.875304907102243  0.0000
  Si     Si        0.148256987725826    0.318892026579142    0.271470351306609  0.0000
  Si     Si        0.338513467057545    0.695066839324222    0.279754108046213  0.0000
  Si     Si        0.841702705953212    0.318893125322036    0.713310074930477  0.0000
  Si     Si        0.651445601908406    0.695066939705395    0.705030950198316  0.0000
  Si     Si        0.832182865835608    0.721433139288907    0.709953344049157  0.0000
  Si     Si        0.661444827052612    0.288444762953771    0.709110308352269  0.0000
  Si     Si        0.157776835637290    0.721432103776215    0.274828399448002  0.0000
  Si     Si        0.328515885185559    0.288445968603071    0.275673616565698  0.0000
  Si     Si        0.826743951241039    0.727426922371595    0.012557410274001  0.0000
  Si     Si        0.163217536530479    0.727429380704876    0.972223590011364  0.0000
  Si     Si        0.345823299444231    0.697800031809043    0.978771992138544  0.0000
  Si     Si        0.145713340034305    0.331216457020286    0.966536393160070  0.0000
  Si     Si        0.644137350821782    0.697795071575246    0.006011370501853  0.0000
  Si     Si        0.844247296615982    0.331215137252869    0.018244856970512  0.0000
  O2     O2        0.087969941149818    0.197501820532016    0.349822080833430  0.0000
  O2     O2        0.394878313076197    0.813372763998824    0.369369309356194  0.0000
  O2     O2        0.901990492127565    0.197504053074726    0.634959420907677  0.0000
  O2     O2        0.595080770546125    0.813370613444351    0.615415610272673  0.0000
  O2     O2        0.884944041156670    0.853695343399928    0.626490903130801  0.0000
  O2     O2        0.609193975234430    0.159420649197667    0.620730077964627  0.0000
  O2     O2        0.105014347224754    0.853692555585767    0.358289071337872  0.0000
  O2     O2        0.380764515277761    0.159421748021752    0.364058837940172  0.0000
  O2     O2        0.994981873250223    0.007331269715199    0.492394087676432  0.0000
  O2     O2        0.494994328094526    0.013801270706859    0.492365838604730  0.0000
  O2     O2        0.979911858305910    0.989919742575373    0.245589591315499  0.0000
  O2     O2        0.498996416763264    0.003978836177575    0.243702481298093  0.0000
  O2     O2        0.010044030330527    0.989918075359214    0.739199459392654  0.0000
  O2     O2        0.490935049843982    0.003971843404656    0.741027717587139  0.0000
  O3     O3        0.615674706870757    0.154256510034430    0.123947708074634  0.0000
  O2     O2        0.865759807041996    0.875135702019316    0.102456561104599  0.0000
  O3     O3        0.374285893432732    0.154261022234490    0.860835899019590  0.0000
  O2     O2        0.124200666589212    0.875137181433284    0.882324693213177  0.0000
  O2     O2        0.402850861749386    0.819896993099646    0.895266445721690  0.0000
  O2     O2        0.083868141289701    0.212662250697003    0.887556591729742  0.0000
  O2     O2        0.587112492528325    0.819890987524929    0.089522846730109  0.0000
  O2     O2        0.906092867207406    0.212660904169683    0.097223136056835  0.0000
  O2     O2        0.494993114600191    0.070431363573234    0.992365601628878  0.0000
  O2     O2        0.994982243294839    0.964692208305280    0.992395309267278  0.0000
  O2     O2        0.128356413013745    0.522574526294128    0.299370370279077  0.0000
  O2     O2        0.357330997475240    0.488992306131899    0.297750103881517  0.0000
  O2     O2        0.861603117304731    0.522576200281576    0.685410191685771  0.0000
  O2     O2        0.632629122692212    0.488991281549415    0.687036906748866  0.0000
  O2     O2        0.236962533809598    0.274569802901283    0.316165054915663  0.0000
  O2     O2        0.248540753371646    0.736038105517273    0.318351015395881  0.0000
  O2     O2        0.752997423833026    0.274570589517072    0.668613072489529  0.0000
  O2     O2        0.741418355322575    0.736039348637865    0.666434750832509  0.0000
  O2     O2        0.140211145093228    0.280295701460716    0.118504995118994  0.0000
  O2     O2        0.353958036873208    0.748759716705081    0.130490012269887  0.0000
  O2     O2        0.849747347546185    0.280296308002485    0.866275737430213  0.0000
  O2     O2        0.635999270475890    0.748761099217040    0.854294501001273  0.0000
  O2     O2        0.838694853115878    0.774027650731071    0.861162962899420  0.0000
  O3     O3        0.652534463989652    0.229968161118573    0.857394782854426  0.0000
  O2     O2        0.151267170355597    0.774027490047512    0.123618595209424  0.0000
  O3     O3        0.337430166982454    0.229972154204338    0.127388593123766  0.0000
  O3     O3        0.619382040566125    0.500109023284285    0.031066444919032  0.0000
  O2     O2        0.864980590429812    0.536596052416999    0.040690919846164  0.0000
  O3     O3        0.370578267625887    0.500114093741777    0.953715551165649  0.0000
  O2     O2        0.124981382280694    0.536597617404421    0.944089752057363  0.0000
  O3     O3        0.757161122889380    0.295668956499923    0.066343075274264  0.0000
  O2     O2        0.734837820168649    0.723698626152882    0.047691703186096  0.0000
  O3     O3        0.232800065792109    0.295669668182605    0.918441775299387  0.0000
  O2     O2        0.255123580716761    0.723705964987665    0.937087382765433  0.0000
