data_c00026.vasp
_audit_creation_method             Generated by GULP
_audit_author_name                 Salvador R. G. Balestra
_symmetry_space_group_name_H-M     'P 1             '
_symmetry_Int_Tables_number        1

loop_
_symmetry_equiv_pos_site_id
_symmetry_equiv_pos_as_xyz
_cell_length_a                       16.9810
_cell_length_b                        7.5891
_cell_length_c                       10.3319
_cell_angle_alpha                   89.8590
_cell_angle_beta                    90.3142
_cell_angle_gamma                   89.9897

loop_
_atom_site_label
_atom_site_type_symbol
_atom_site_fract_x
_atom_site_fract_y
_atom_site_fract_z
_atom_site_charge
  Ge     Ge        0.556730000000016    0.000000000000000    0.122129999999970  0.0000
  Ge     Ge        0.166410966615456    0.731025356053978    0.977566673327976  0.0000
  Si     Si        0.045307446315804    0.011595669651571    0.372523347954687  0.0000
  Si     Si        0.445085352468633    0.997156038995260    0.375229296126862  0.0000
  Si     Si        0.943603222464759    0.017379572688546    0.628130841179504  0.0000
  Si     Si        0.542139006298914    0.999049089078540    0.636206486353678  0.0000
  Si     Si        0.947753284037374    0.005607564021569    0.113884715360271  0.0000
  Si     Si        0.441843293421648    0.005218412350584    0.885244763416164  0.0000
  Si     Si        0.055840484085776    0.013134500345779    0.874611633855736  0.0000
  Si     Si        0.147691853125576    0.317848597015923    0.281464898714654  0.0000
  Si     Si        0.342025230289941    0.687529827169574    0.292085725425422  0.0000
  Si     Si        0.840883271500545    0.322482295089871    0.712480071106810  0.0000
  Si     Si        0.647708974885310    0.694853003199146    0.730667822177361  0.0000
  Si     Si        0.828831764073044    0.725988601379786    0.717620946816258  0.0000
  Si     Si        0.660365712703701    0.287420204728960    0.729041333483353  0.0000
  Si     Si        0.161935854644107    0.725561560589802    0.285011251306884  0.0000
  Si     Si        0.329439258370265    0.284832198166209    0.289429131797258  0.0000
  Si     Si        0.672894272513844    0.280890257564374    0.029275710480903  0.0000
  Si     Si        0.834131338390944    0.720755043723943    0.019748972370557  0.0000
  Si     Si        0.330367921087362    0.288859399273038    0.987918937314099  0.0000
  Si     Si        0.350034728289295    0.685663810736932    0.987884094514690  0.0000
  Si     Si        0.146627837323452    0.326607597760868    0.982356412087708  0.0000
  Si     Si        0.652404102841509    0.680909759111943    0.030494866782738  0.0000
  Si     Si        0.853684202082979    0.323535730714039    0.014124783628770  0.0000
  O2     O2        0.089339857737541    0.200360348673065    0.367678000067388  0.0000
  O2     O2        0.403087889487104    0.806074193890023    0.372948379661621  0.0000
  O2     O2        0.897688825913225    0.203642478113367    0.624678037014528  0.0000
  O2     O2        0.586868169450750    0.812125254639900    0.648526397824586  0.0000
  O2     O2        0.879472876147101    0.860705484004047    0.632422922836730  0.0000
  O2     O2        0.604733155756455    0.157911545607219    0.647726194401729  0.0000
  O2     O2        0.109218693135109    0.854238633809654    0.372284488271745  0.0000
  O2     O2        0.377915257910532    0.148524925314182    0.377733894593838  0.0000
  O2     O2        0.995966415537133    0.998487779697580    0.502328544899618  0.0000
  O2     O2        0.501955853412785    0.010414024106893    0.497343223874565  0.0000
  O2     O2        0.984997663495275    0.990437961010883    0.254555413393790  0.0000
  O3     O3        0.498270725389316    0.030278933428705    0.251804172625020  0.0000
  O2     O2        0.000713079464602    0.006238557097685    0.750948599376775  0.0000
  O2     O2        0.472489795767807    0.014593469698037    0.739542401868751  0.0000
  O3     O3        0.635529489635140    0.144427507187144    0.125995444796451  0.0000
  O2     O2        0.877137112045342    0.864868136712183    0.107180832984195  0.0000
  O2     O2        0.368711484693654    0.140328590223294    0.898708368097125  0.0000
  O3     O3        0.125554707690872    0.873347277477182    0.867146908137692  0.0000
  O2     O2        0.415508036850273    0.805022230957876    0.918506933712176  0.0000
  O2     O2        0.092594889310248    0.207917556555579    0.889632246574084  0.0000
  O3     O3        0.594368384927553    0.788467138623159    0.120252006147356  0.0000
  O2     O2        0.915938106698057    0.203872107982106    0.091387377798996  0.0000
  O3     O3        0.508783924679955    0.063913510564179    0.983049463565431  0.0000
  O2     O2        0.010200765032762    0.953419078305499    0.004548674860199  0.0000
  O2     O2        0.131014052135752    0.525014501183283    0.301128958610210  0.0000
  O2     O2        0.359851008367515    0.482271704432233    0.319617953989934  0.0000
  O2     O2        0.856211939087005    0.527981333360990    0.682987838258577  0.0000
  O2     O2        0.631338818501565    0.488157057592157    0.707034137190289  0.0000
  O2     O2        0.237101098073205    0.271658051233246    0.322380514172472  0.0000
  O2     O2        0.252845255458687    0.734432874195019    0.332241108051486  0.0000
  O2     O2        0.750463799410376    0.272073645756256    0.681145187853961  0.0000
  O2     O2        0.736088143538447    0.745177325083173    0.686582221143948  0.0000
  O2     O2        0.132751547569210    0.268616090580176    0.131471744098922  0.0000
  O2     O2        0.353643707538595    0.729315812384574    0.140680402356318  0.0000
  O2     O2        0.861548486384787    0.281975665368773    0.861987864749367  0.0000
  O2     O2        0.635473529371070    0.739259144430114    0.881775674584177  0.0000
  O2     O2        0.842844009232791    0.768911672198050    0.868521013913813  0.0000
  O2     O2        0.657482293088182    0.230550366224330    0.879057324603237  0.0000
  O3     O3        0.157370377136717    0.790080940648337    0.137811100444732  0.0000
  O2     O2        0.341565968889172    0.236973571907702    0.138607002852341  0.0000
  O2     O2        0.636545912036847    0.474801453562993    0.052180226052406  0.0000
  O2     O2        0.872516432882976    0.528069785306107    0.043619761124965  0.0000
  O2     O2        0.370269268507707    0.479658657519135    0.963430182883731  0.0000
  O3     O3        0.123793621575426    0.526194627414188    0.958935214809695  0.0000
  O2     O2        0.765845949127433    0.280795995950734    0.059274728324816  0.0000
  O2     O2        0.743478869145719    0.722896504315540    0.061933785000193  0.0000
  O2     O2        0.238714243431628    0.299490420163717    0.950774540649869  0.0000
  O3     O3        0.264285280105901    0.727314280779486    0.934822620683066  0.0000
