data_c00005.vasp
_audit_creation_method             Generated by GULP
_audit_author_name                 Salvador R. G. Balestra
_symmetry_space_group_name_H-M     'P 1             '
_symmetry_Int_Tables_number        1

loop_
_symmetry_equiv_pos_site_id
_symmetry_equiv_pos_as_xyz
_cell_length_a                       17.1884
_cell_length_b                        7.6088
_cell_length_c                       10.1927
_cell_angle_alpha                   89.9481
_cell_angle_beta                    90.3463
_cell_angle_gamma                   89.8183

loop_
_atom_site_label
_atom_site_type_symbol
_atom_site_fract_x
_atom_site_fract_y
_atom_site_fract_z
_atom_site_charge
  Ge     Ge        0.052090000000021    0.000000000000000    0.372269999999958  0.0000
  Ge     Ge        0.941116319575018    0.998072839545032    0.109129646092244  0.0000
  Si     Si        0.451442570376122    0.009083192840473    0.374909653021778  0.0000
  Si     Si        0.946681483709833    0.994347417763805    0.627472885073807  0.0000
  Si     Si        0.548642884955551    0.009474156139495    0.637369355929070  0.0000
  Si     Si        0.551983051552674    0.010981585054518    0.124001164980662  0.0000
  Si     Si        0.438669853952026    0.004080995482068    0.885310935852397  0.0000
  Si     Si        0.052957768636779    0.002669712968162    0.869177321187103  0.0000
  Si     Si        0.168407648318641    0.287318683482765    0.289444622786385  0.0000
  Si     Si        0.337749081706957    0.717628348616925    0.278948226709036  0.0000
  Si     Si        0.831494545876056    0.285105985937535    0.729592823704340  0.0000
  Si     Si        0.664061665342957    0.718700721336873    0.718005993575014  0.0000
  Si     Si        0.842997725982235    0.691595571043230    0.728982510284292  0.0000
  Si     Si        0.653178091997130    0.315592913671183    0.717427656294884  0.0000
  Si     Si        0.158468452969440    0.693781758307832    0.290757567130935  0.0000
  Si     Si        0.348107797521560    0.314361456206061    0.279544519874276  0.0000
  Si     Si        0.645368185154224    0.324604879909842    0.024177484582386  0.0000
  Si     Si        0.841312762405993    0.682462049322079    0.034149603228501  0.0000
  Si     Si        0.341916830524963    0.315903281160733    0.974272100223194  0.0000
  Si     Si        0.150083593340845    0.694066201861291    0.986166969231989  0.0000
  Si     Si        0.329795833072497    0.715174361542918    0.972327837363978  0.0000
  Si     Si        0.161617854957775    0.289993246633624    0.984997842261238  0.0000
  Si     Si        0.662053529973794    0.720928552350467    0.024628217961478  0.0000
  Si     Si        0.823523423795970    0.284512021140307    0.035226295774858  0.0000
  O3     O3        0.120502212352931    0.166362527230555    0.385865936375573  0.0000
  O2     O2        0.390556908231228    0.850046165482863    0.361435771995931  0.0000
  O2     O2        0.886997435741507    0.154933330681245    0.650114445459345  0.0000
  O2     O2        0.611964653263991    0.852319356103202    0.633089662169366  0.0000
  O2     O2        0.902978251660052    0.808572025090332    0.646941371122211  0.0000
  O2     O2        0.594436789389991    0.194504439034247    0.634609220211550  0.0000
  O3     O3        0.102319790049696    0.802836297270366    0.382811361870751  0.0000
  O2     O2        0.406608271611211    0.194681932076452    0.363549373983160  0.0000
  O3     O3        0.976447994903235    0.006726666715068    0.480515020149350  0.0000
  O2     O2        0.491364589270165    0.996631878650862    0.515329804388688  0.0000
  O1     O1        0.011179852655718    0.028580400403738    0.221143765178944  0.0000
  O2     O2        0.519192431663162    0.994416138948402    0.268925523045791  0.0000
  O2     O2        0.024424150218999    0.005362457517712    0.717890283543571  0.0000
  O2     O2        0.495642829497554    0.990744356418034    0.764516485162891  0.0000
  O2     O2        0.585492551696950    0.206679221483864    0.104688360589577  0.0000
  O3     O3        0.899269432421680    0.792008901731248    0.122840145425720  0.0000
  O2     O2        0.395717019284922    0.193347584149508    0.884226595044516  0.0000
  O2     O2        0.091205566125344    0.812747483297633    0.901878456534021  0.0000
  O2     O2        0.374164992638672    0.850321223349016    0.878422096806723  0.0000
  O2     O2        0.115011072160693    0.158358319894215    0.891553725803664  0.0000
  O2     O2        0.619451827114766    0.866181920138364    0.110697649811771  0.0000
  O3     O3        0.866553062217938    0.149627501695669    0.127442714640984  0.0000
  O2     O2        0.485162124278269    0.971689088822768    0.019249433580949  0.0000
  O3     O3        0.978127502284228    0.035125476107887    0.955095339095143  0.0000
  O2     O2        0.144235497011165    0.488544917342232    0.314877961067680  0.0000
  O2     O2        0.364341813883735    0.518449754224879    0.310815685721092  0.0000
  O2     O2        0.859299823602779    0.485189122267574    0.703909830402483  0.0000
  O2     O2        0.637434492109925    0.520118780429520    0.685191195465311  0.0000
  O2     O2        0.260222305961456    0.263913375923734    0.316480664396592  0.0000
  O2     O2        0.248121900673281    0.743744956469449    0.319796786404380  0.0000
  O2     O2        0.742027827366807    0.265535381227018    0.681591587061039  0.0000
  O2     O2        0.755124083595365    0.740067989654906    0.683878598915279  0.0000
  O2     O2        0.150180461231076    0.237296895290493    0.137210714208332  0.0000
  O2     O2        0.346252628975906    0.757906394550188    0.124661150646323  0.0000
  O2     O2        0.835311204403675    0.234785698264326    0.882441559036831  0.0000
  O2     O2        0.652460763677877    0.764101827835709    0.870867779778184  0.0000
  O2     O2        0.855463445287613    0.735224127459507    0.882081582932143  0.0000
  O2     O2        0.637079724387197    0.279953342639402    0.870515495078161  0.0000
  O2     O2        0.137902959276182    0.741888652849974    0.138955617482912  0.0000
  O2     O2        0.362168994364867    0.276544891633449    0.125960629050357  0.0000
  O2     O2        0.625663424520414    0.528605344408460    0.051878866495846  0.0000
  O2     O2        0.858804005900052    0.478075632419872    0.058673069696275  0.0000
  O2     O2        0.359074520545860    0.518450268920470    0.939387348401032  0.0000
  O2     O2        0.131001739072359    0.488967990088904    0.961500571946475  0.0000
  O2     O2        0.732633872621268    0.282837014367789    0.070882565436230  0.0000
  O2     O2        0.751834842973569    0.725091700964272    0.067676797689895  0.0000
  O2     O2        0.251782848056751    0.274471114703236    0.946740756124101  0.0000
  O2     O2        0.238108136362256    0.733597912593313    0.943187196338605  0.0000
