data_c00031.vasp
_audit_creation_method             Generated by GULP
_audit_author_name                 Salvador R. G. Balestra
_symmetry_space_group_name_H-M     'P 1             '
_symmetry_Int_Tables_number        1

loop_
_symmetry_equiv_pos_site_id
_symmetry_equiv_pos_as_xyz
_cell_length_a                       17.1945
_cell_length_b                        7.6331
_cell_length_c                       10.2168
_cell_angle_alpha                   89.9390
_cell_angle_beta                    90.2022
_cell_angle_gamma                   89.5348

loop_
_atom_site_label
_atom_site_type_symbol
_atom_site_fract_x
_atom_site_fract_y
_atom_site_fract_z
_atom_site_charge
  Ge     Ge        0.160189999999943    0.293909999999983    0.273440000000051  0.0000
  Ge     Ge        0.653863995083625    0.311963913468105    0.699780714831456  0.0000
  Si     Si        0.046278399043294    0.002048704387517    0.351711193422771  0.0000
  Si     Si        0.450812406285531    0.998721545571277    0.361484916096405  0.0000
  Si     Si        0.949369687164308    0.992114393324260    0.610505817751528  0.0000
  Si     Si        0.546672834815608    0.009572559799025    0.621868056185381  0.0000
  Si     Si        0.558437941316936    0.002184726252087    0.117279755853872  0.0000
  Si     Si        0.943430240918028    0.992114350395200    0.094571148217311  0.0000
  Si     Si        0.443520513949751    0.994395048745432    0.877822978120363  0.0000
  Si     Si        0.057210496216497    0.997200754713720    0.854927747174669  0.0000
  Si     Si        0.338171108933010    0.706817635160799    0.264609941343406  0.0000
  Si     Si        0.836217470755309    0.289332674265059    0.701890547454687  0.0000
  Si     Si        0.663543732984094    0.722386012341558    0.708254706994814  0.0000
  Si     Si        0.843360695337737    0.692780214388855    0.708730364290167  0.0000
  Si     Si        0.158193350786827    0.705994483133787    0.266612851263632  0.0000
  Si     Si        0.342882844586391    0.302326032315760    0.272190875227689  0.0000
  Si     Si        0.653820913918272    0.309109933311525    0.011308718825507  0.0000
  Si     Si        0.845042463487583    0.682585169401897    0.013829477412675  0.0000
  Si     Si        0.340703253965698    0.301366717000949    0.964681266182109  0.0000
  Si     Si        0.157284870977781    0.692265544858684    0.961532028295933  0.0000
  Si     Si        0.336849559663370    0.698621477327993    0.959127483484437  0.0000
  Si     Si        0.161078011902164    0.289957685686654    0.962656557858907  0.0000
  Si     Si        0.665337848560648    0.709209625382274    0.013866711335310  0.0000
  Si     Si        0.833230427990475    0.286546702741314    0.009884934495447  0.0000
  O3     O3        0.098400026570572    0.172673564784362    0.367790280765073  0.0000
  O2     O2        0.392207365128832    0.837429449698248    0.344845323213911  0.0000
  O2     O2        0.894254533789078    0.162347738736845    0.624065658439716  0.0000
  O2     O2        0.615698736414601    0.864559058164910    0.624856311891684  0.0000
  O2     O2        0.900018562677211    0.815704591110819    0.627029215014612  0.0000
  O3     O3        0.587866010351708    0.195214251027675    0.609246685503420  0.0000
  O2     O2        0.105085098289887    0.836378983190293    0.350693326349107  0.0000
  O2     O2        0.404248302266142    0.182372795572522    0.350756148396151  0.0000
  O2     O2        0.984285762846229    0.986384508526080    0.466346817646661  0.0000
  O2     O2        0.487676510410709    0.978784473933014    0.503935470228562  0.0000
  O2     O2        0.999329677333762    0.012792928306258    0.216531150876451  0.0000
  O2     O2        0.521247622321070    0.992380175097625    0.259638953547011  0.0000
  O2     O2        0.020862810630918    0.000279103830074    0.711147871992298  0.0000
  O2     O2        0.498044842831499    0.994121588242507    0.754008416914498  0.0000
  O2     O2        0.599504148100935    0.190149423903225    0.102240019573658  0.0000
  O2     O2        0.901067487536793    0.803865990482076    0.100385733345778  0.0000
  O2     O2        0.394541218824366    0.174913494996627    0.878970921834056  0.0000
  O2     O2        0.104088743884285    0.815036568077745    0.870988486183843  0.0000
  O2     O2        0.385836262547001    0.829103623088656    0.869382763905341  0.0000
  O2     O2        0.113590815318953    0.163581487410355    0.866871997153993  0.0000
  O2     O2        0.620662191051857    0.844394763997260    0.106601448418741  0.0000
  O2     O2        0.879500754185189    0.147180337666102    0.097623335491406  0.0000
  O2     O2        0.492486901458846    0.975473509179819    0.009669821554457  0.0000
  O2     O2        0.989841295532763    0.012614952711013    0.960786889103320  0.0000
  O3     O3        0.135117275049135    0.509801802837711    0.297520388259332  0.0000
  O2     O2        0.362134920310440    0.506676841057180    0.297137803158752  0.0000
  O2     O2        0.861804898157129    0.490133973311969    0.676788932960690  0.0000
  O3     O3        0.633883991854277    0.530597777708332    0.675600178545461  0.0000
  O3     O3        0.256250140721690    0.262432257241003    0.318022392866459  0.0000
  O2     O2        0.248464249917757    0.738390880348484    0.303982859789937  0.0000
  O3     O3        0.748465302284151    0.265093495840725    0.654458082017244  0.0000
  O2     O2        0.754410222252630    0.737004806381001    0.670674151706231  0.0000
  O3     O3        0.148937488436580    0.233767145114667    0.111575849014621  0.0000
  O2     O2        0.348254351562439    0.746927495557277    0.111118146775701  0.0000
  O2     O2        0.840502447494259    0.244423604405180    0.856186761059186  0.0000
  O2     O2        0.653812346190534    0.762964899231081    0.862667751452534  0.0000
  O2     O2        0.857058422484946    0.730551481546816    0.861921120306505  0.0000
  O3     O3        0.640417206966436    0.256654195244041    0.862022099612269  0.0000
  O2     O2        0.145744816727553    0.746525408350450    0.112420737085620  0.0000
  O2     O2        0.350465407714669    0.258945848290689    0.118097239228962  0.0000
  O2     O2        0.632401841009227    0.513486721575598    0.034659339385896  0.0000
  O2     O2        0.867016722152174    0.479745166798540    0.039741615596835  0.0000
  O2     O2        0.365976351217049    0.500185009403419    0.933886150991582  0.0000
  O2     O2        0.132364137955607    0.490710905690061    0.942269002908846  0.0000
  O2     O2        0.743490559583168    0.276990046213881    0.050890511328982  0.0000
  O2     O2        0.755811128404659    0.716650947822150    0.053011031516327  0.0000
  O2     O2        0.251500678259057    0.273417377533903    0.924321395643245  0.0000
  O2     O2        0.246577226975543    0.717535559518480    0.920201549179344  0.0000
