data_c00014.vasp
_audit_creation_method             Generated by GULP
_audit_author_name                 Salvador R. G. Balestra
_symmetry_space_group_name_H-M     'P 1             '
_symmetry_Int_Tables_number        1

loop_
_symmetry_equiv_pos_site_id
_symmetry_equiv_pos_as_xyz
_cell_length_a                       17.1878
_cell_length_b                        7.6316
_cell_length_c                       10.1975
_cell_angle_alpha                   89.9141
_cell_angle_beta                    90.5767
_cell_angle_gamma                   89.7010

loop_
_atom_site_label
_atom_site_type_symbol
_atom_site_fract_x
_atom_site_fract_y
_atom_site_fract_z
_atom_site_charge
  Ge     Ge        0.052090000000021    0.000000000000000    0.372269999999958  0.0000
  Ge     Ge        0.332081913641389    0.281670806291581    0.972673914375699  0.0000
  Si     Si        0.452481481726232    0.985510899125810    0.378880292994719  0.0000
  Si     Si        0.949307316044547    0.993743763903157    0.632567788058871  0.0000
  Si     Si        0.552945784772336    0.986640439563009    0.638578878666246  0.0000
  Si     Si        0.552829423423342    0.995971062103812    0.126145318569211  0.0000
  Si     Si        0.941921117521141    0.989798967670245    0.114587611239848  0.0000
  Si     Si        0.441789598284785    0.991755763259476    0.883587442510950  0.0000
  Si     Si        0.053478696076985    0.002824244079394    0.879716271190748  0.0000
  Si     Si        0.159866768403372    0.306203433083679    0.292905888112242  0.0000
  Si     Si        0.349155192522751    0.682485745961071    0.284785990416737  0.0000
  Si     Si        0.842670394295046    0.295137392039948    0.730456177785337  0.0000
  Si     Si        0.659793390999809    0.685641750886920    0.718608618219500  0.0000
  Si     Si        0.838295755513139    0.697222824908475    0.729781650716933  0.0000
  Si     Si        0.663165983565024    0.282972280590631    0.723012345369247  0.0000
  Si     Si        0.169733302616894    0.710096705335106    0.294693815890945  0.0000
  Si     Si        0.338565725156124    0.277116590770697    0.284701071258347  0.0000
  Si     Si        0.661346445577490    0.286894954716835    0.029017028389243  0.0000
  Si     Si        0.832092345359914    0.697952025273398    0.037295839901463  0.0000
  Si     Si        0.162935296155526    0.712265867047731    0.990657397090655  0.0000
  Si     Si        0.344214200644910    0.685185581481287    0.980237387120015  0.0000
  Si     Si        0.149870943662284    0.311940189105251    0.986337356884512  0.0000
  Si     Si        0.653295144597567    0.686350548095059    0.025311875557681  0.0000
  Si     Si        0.841080601639514    0.300447720665483    0.036945006810515  0.0000
  O3     O3        0.101844718024750    0.195695324904754    0.379795500320288  0.0000
  O2     O2        0.407643548914318    0.800547205500218    0.369807446757447  0.0000
  O2     O2        0.899520833164780    0.171409802294265    0.649241595559507  0.0000
  O2     O2        0.604545832704987    0.809714581664675    0.630822805176126  0.0000
  O2     O2        0.894787651672764    0.825212397266429    0.652535159594488  0.0000
  O2     O2        0.609893447533818    0.154205308180298    0.637247085771403  0.0000
  O3     O3        0.120715386031716    0.834111580463200    0.387121499920349  0.0000
  O2     O2        0.391917816861158    0.146663658257651    0.370498866008955  0.0000
  O3     O3        0.980998888152464    0.988303216075585    0.487378515495362  0.0000
  O2     O2        0.494111813379404    0.996466279501003    0.518350964113045  0.0000
  O3     O3        0.006278767314476    0.974353288219541    0.223630420138309  0.0000
  O2     O2        0.518769214969677    0.998585913285375    0.270525470763598  0.0000
  O2     O2        0.023876750637566    0.992214882412273    0.730077971739966  0.0000
  O2     O2        0.503128388226883    0.984245658846147    0.769381528429147  0.0000
  O2     O2        0.613926870648121    0.154009597112291    0.117865572818669  0.0000
  O2     O2        0.879903201332127    0.832361463846216    0.126589415818052  0.0000
  O3     O3        0.380261381275248    0.147050683314096    0.866015675751810  0.0000
  O2     O2        0.118552957805953    0.852538409816697    0.900166172225792  0.0000
  O2     O2        0.394875628113580    0.809972469267638    0.888946317067317  0.0000
  O2     O2        0.088224439822022    0.195692921861909    0.905929534603626  0.0000
  O2     O2        0.594563380108575    0.809228953115138    0.103621912962511  0.0000
  O2     O2        0.895993490721950    0.175382329057339    0.124594750019310  0.0000
  O2     O2        0.484706144094377    0.030152987825674    0.021492881959218  0.0000
  O2     O2        0.981096931751885    0.969100808755335    0.972946468554262  0.0000
  O2     O2        0.142860082642275    0.510689165451179    0.316235128546941  0.0000
  O2     O2        0.367513317864924    0.476855588811079    0.305792247302844  0.0000
  O2     O2        0.862656418706460    0.496979111227196    0.698822999697909  0.0000
  O2     O2        0.639879194439364    0.483224103052907    0.689357642030147  0.0000
  O2     O2        0.249241052016140    0.261087896064099    0.330846817087922  0.0000
  O2     O2        0.261310328733733    0.725874668665670    0.327791180664782  0.0000
  O2     O2        0.753731436890727    0.252709366299440    0.690011308913750  0.0000
  O2     O2        0.749125867274474    0.726612218269406    0.683283480083392  0.0000
  O2     O2        0.146315659132627    0.258753366424485    0.139619380965946  0.0000
  O2     O2        0.360333012199650    0.731686646954193    0.132574709807686  0.0000
  O2     O2        0.855438097389487    0.258744357923103    0.884454841042785  0.0000
  O2     O2        0.645063008481991    0.727585001147674    0.871141436190148  0.0000
  O2     O2        0.844500586844998    0.736659247536607    0.884019417960832  0.0000
  O2     O2        0.649429833783827    0.241259058237783    0.875993130138048  0.0000
  O2     O2        0.154883072943379    0.766355386908796    0.142830545683403  0.0000
  O3     O3        0.344012898264529    0.221402099099686    0.134366255421645  0.0000
  O2     O2        0.631550093483920    0.484763988227841    0.054725280583376  0.0000
  O2     O2        0.861533345333199    0.501339096080101    0.070352909476405  0.0000
  O3     O3        0.368422852762892    0.489166753353181    0.950191540618976  0.0000
  O2     O2        0.128237459154280    0.517787635280486    0.968176241629259  0.0000
  O2     O2        0.751308473079620    0.266085643030753    0.069834815888637  0.0000
  O2     O2        0.741529690320559    0.721008469925340    0.072063744271899  0.0000
  O3     O3        0.234806577688923    0.275739232754980    0.931895242739128  0.0000
  O2     O2        0.252804444889557    0.713014408044349    0.949212365064298  0.0000
