data_c00015.vasp
_audit_creation_method             Generated by GULP
_audit_author_name                 Salvador R. G. Balestra
_symmetry_space_group_name_H-M     'P 1             '
_symmetry_Int_Tables_number        1

loop_
_symmetry_equiv_pos_site_id
_symmetry_equiv_pos_as_xyz
_cell_length_a                       17.2174
_cell_length_b                        7.6269
_cell_length_c                       10.1969
_cell_angle_alpha                   90.3703
_cell_angle_beta                    90.5770
_cell_angle_gamma                   90.2648

loop_
_atom_site_label
_atom_site_type_symbol
_atom_site_fract_x
_atom_site_fract_y
_atom_site_fract_z
_atom_site_charge
  Ge     Ge        0.052090000000021    0.000000000000000    0.372269999999958  0.0000
  Ge     Ge        0.152499698696425    0.681037544829521    0.960878729099802  0.0000
  Si     Si        0.453073023929726    0.011454732819223    0.360738436341405  0.0000
  Si     Si        0.946922841875910    0.007643548028104    0.631743163109048  0.0000
  Si     Si        0.549058376997084    0.005701264623039    0.624089813450496  0.0000
  Si     Si        0.558110226950458    0.005080416820893    0.115438435945163  0.0000
  Si     Si        0.941504179814683    0.002420695517489    0.122795181593149  0.0000
  Si     Si        0.443178235155839    0.998402227985278    0.875927726449748  0.0000
  Si     Si        0.051409485955310    0.989290002244332    0.883161407308453  0.0000
  Si     Si        0.169272397103221    0.289685273932736    0.272918598465685  0.0000
  Si     Si        0.338544013554429    0.715844707658985    0.262153272340852  0.0000
  Si     Si        0.834845981002251    0.300077667122198    0.702845340909332  0.0000
  Si     Si        0.660827711963990    0.713561046870796    0.706723536509593  0.0000
  Si     Si        0.840777546797919    0.702884142791572    0.707559165031321  0.0000
  Si     Si        0.655797401374306    0.310280137316304    0.702903733719389  0.0000
  Si     Si        0.160782261277225    0.699514100935396    0.269922834725298  0.0000
  Si     Si        0.347937447613622    0.312771063547641    0.268951126315501  0.0000
  Si     Si        0.656690843731159    0.311039955943972    0.009145887538849  0.0000
  Si     Si        0.842622626449173    0.696172163198833    0.013151132150982  0.0000
  Si     Si        0.344050692695346    0.306559827357427    0.963613532326458  0.0000
  Si     Si        0.334374654701053    0.702004166457998    0.953321151897141  0.0000
  Si     Si        0.163868918525990    0.275268864414331    0.970041216489791  0.0000
  Si     Si        0.662784923738527    0.710501325542309    0.012194435850508  0.0000
  Si     Si        0.835794158551935    0.296943899786793    0.009671494909973  0.0000
  O3     O3        0.116228171990247    0.174023339132365    0.364220987922339  0.0000
  O2     O2        0.394204677586725    0.849952119727420    0.338767472332822  0.0000
  O2     O2        0.887789488894930    0.171439655675278    0.616775357716191  0.0000
  O2     O2        0.608407221392172    0.842354383238988    0.620046905535736  0.0000
  O2     O2        0.896388487606415    0.827703857764702    0.623791167872920  0.0000
  O2     O2        0.598501029424806    0.186175158097714    0.618601216943074  0.0000
  O3     O3        0.102919891092689    0.806686953412761    0.360161836870139  0.0000
  O2     O2        0.406891616193222    0.194657241232844    0.352497378723465  0.0000
  O3     O3        0.012909836692421    0.007551055104446    0.526410268380912  0.0000
  O2     O2        0.489797926626194    0.995194664505444    0.503975158788643  0.0000
  O3     O3        0.973031401064782    0.014946405587891    0.268802358390491  0.0000
  O2     O2        0.523625817516757    0.005472008492785    0.259763591039850  0.0000
  O2     O2        0.988677400764949    0.028451309393036    0.772539937111134  0.0000
  O2     O2        0.499617562823870    0.996292138247414    0.754840874634325  0.0000
  O2     O2        0.602281266019860    0.188721010254873    0.095210843304117  0.0000
  O2     O2        0.896340088728758    0.818038804283732    0.103939435914577  0.0000
  O2     O2        0.395257184938913    0.179313339080410    0.874543681806795  0.0000
  O3     O3        0.087922780289472    0.798485715545874    0.866547685295046  0.0000
  O2     O2        0.384541238903159    0.833948479499092    0.866273064046855  0.0000
  O2     O2        0.121899466116625    0.130168538226954    0.879531898396352  0.0000
  O2     O2        0.616960790338261    0.842740518431719    0.104733467583251  0.0000
  O2     O2        0.884313565916042    0.164689538043417    0.097570123274509  0.0000
  O2     O2        0.489822644220384    0.979692288855529    0.010892055593702  0.0000
  O2     O2        0.013700291198096    0.010195112837336    0.025862608314853  0.0000
  O2     O2        0.144609467386309    0.492347420518694    0.283846260318775  0.0000
  O2     O2        0.366608094859376    0.518043923891334    0.292665682721955  0.0000
  O2     O2        0.859547436508721    0.500562666968561    0.674093507154032  0.0000
  O2     O2        0.636454098312990    0.513186285720859    0.674712428475249  0.0000
  O2     O2        0.260001681032236    0.270558554405102    0.312143263615294  0.0000
  O2     O2        0.250362032430028    0.741488524204734    0.310457739160141  0.0000
  O2     O2        0.744664599984804    0.271193670077975    0.663955163465447  0.0000
  O2     O2        0.751142902499109    0.743375444951207    0.672729871720821  0.0000
  O2     O2        0.157001263451052    0.223742461115378    0.123129872425087  0.0000
  O2     O2        0.339926661432736    0.753007515714136    0.107149279793431  0.0000
  O2     O2        0.846465801752511    0.255875905190172    0.856107311393592  0.0000
  O2     O2        0.648037269886402    0.757048298926315    0.860052361182702  0.0000
  O2     O2        0.857110758607524    0.741097214403537    0.861171145959480  0.0000
  O2     O2        0.643406518307716    0.267733650120469    0.855900961230681  0.0000
  O3     O3        0.145712147326517    0.754859383208735    0.120568790599425  0.0000
  O2     O2        0.358862278463775    0.263767655591864    0.116301313898859  0.0000
  O2     O2        0.634501413906181    0.512290066499406    0.039290029920071  0.0000
  O2     O2        0.864858554524745    0.494606254228551    0.041033777028913  0.0000
  O2     O2        0.368039502936962    0.506109592419409    0.932593733643402  0.0000
  O3     O3        0.126566509147395    0.463539315821906    0.946622488055634  0.0000
  O2     O2        0.745921623799828    0.276321340011669    0.047674181259517  0.0000
  O2     O2        0.753333434801926    0.729910241116047    0.047627988588619  0.0000
  O2     O2        0.253720154804320    0.280085123111263    0.928601911022031  0.0000
  O3     O3        0.246084619166143    0.710437642077680    0.906637264952538  0.0000
