data_c00007.vasp
_audit_creation_method             Generated by GULP
_audit_author_name                 Salvador R. G. Balestra
_symmetry_space_group_name_H-M     'P 1             '
_symmetry_Int_Tables_number        1

loop_
_symmetry_equiv_pos_site_id
_symmetry_equiv_pos_as_xyz
_cell_length_a                       17.6070
_cell_length_b                        7.8909
_cell_length_c                       10.3568
_cell_angle_alpha                   89.4360
_cell_angle_beta                    89.7925
_cell_angle_gamma                   91.6253

loop_
_atom_site_label
_atom_site_type_symbol
_atom_site_fract_x
_atom_site_fract_y
_atom_site_fract_z
_atom_site_charge
  Ge     Ge        0.052090000000021    0.000000000000000    0.372269999999958  0.0000
  Ge     Ge        0.448968974516701    0.053473997114515    0.376065373805336  0.0000
  Ge     Ge        0.948774358893344    0.048917610906661    0.625416898876798  0.0000
  Ge     Ge        0.550858417920211    0.992916224617929    0.628934033955850  0.0000
  Ge     Ge        0.548721394942103    0.991745999069198    0.119232470364667  0.0000
  Ge     Ge        0.952979111999183    0.055345304442364    0.114547661240611  0.0000
  Ge     Ge        0.442069721392271    0.055458053441989    0.871700159914333  0.0000
  Ge     Ge        0.061584502723551    0.009896598608096    0.864969674560264  0.0000
  Ge     Ge        0.172487054529503    0.286696646005324    0.289332447153239  0.0000
  Ge     Ge        0.327983232571458    0.768489084701521    0.297652649640502  0.0000
  Ge     Ge        0.855041932069422    0.361270572949910    0.740123711551526  0.0000
  Ge     Ge        0.645091572139321    0.680374596395257    0.740559417587582  0.0000
  Ge     Ge        0.826981269693522    0.760019839672997    0.735941205616442  0.0000
  Ge     Ge        0.673447186080234    0.281564377946537    0.740922463044744  0.0000
  Ge     Ge        0.148666626203762    0.691940222220124    0.295493501911961  0.0000
  Ge     Ge        0.353817612966169    0.365667484165789    0.295723752381062  0.0000
  Ge     Ge        0.673088796454331    0.281886648993327    0.054830601824134  0.0000
  Ge     Ge        0.828404314353914    0.766088101225590    0.049140460632317  0.0000
  Ge     Ge        0.357663529589821    0.379276553069482    0.984809454698246  0.0000
  Ge     Ge        0.172530894022155    0.308958633074563    0.978466595466099  0.0000
  Ge     Ge        0.647973232299828    0.681139441753911    0.055029997551122  0.0000
  Ge     Ge        0.853166103798788    0.366970064351336    0.055302082185661  0.0000
  Si     Si        0.152463289072368    0.700007891495118    0.990566820392061  0.0000
  Si     Si        0.330946803192051    0.768136417280574    0.992653421390805  0.0000
  O1     O1        0.125115482840890    0.147888333315261    0.390323678885130  0.0000
  O1     O1        0.376928800377169    0.902969040086633    0.396482394613268  0.0000
  O1     O1        0.922770863349151    0.251584668969730    0.659475780915423  0.0000
  O1     O1        0.578108996268901    0.789068451836575    0.656274108583625  0.0000
  O1     O1        0.872763750459425    0.911336742340259    0.643269635018722  0.0000
  O1     O1        0.626260024145982    0.129680002516060    0.654006060287379  0.0000
  O1     O1        0.084937832949564    0.797749447383659    0.387883989725759  0.0000
  O1     O1        0.413670941263690    0.252656649557997    0.392389638258098  0.0000
  O1     O1        0.975461426485802    0.039860372954273    0.464860538190247  0.0000
  O1     O1        0.525766562592856    0.015431090893917    0.468701530689991  0.0000
  O1     O1        0.027446334030542    0.017704138103922    0.211082273574532  0.0000
  O1     O1        0.474086860744575    0.033413865164381    0.215220353815393  0.0000
  O1     O1        0.028573482999738    0.993796667797290    0.709487302385498  0.0000
  O1     O1        0.469705156634827    0.038469112807464    0.713444065611893  0.0000
  O1     O1        0.621991789345761    0.137787958367754    0.144756605248486  0.0000
  O1     O1        0.879267339519228    0.909122423706395    0.137941630235533  0.0000
  O1     O1        0.417930033995991    0.263045966584609    0.893805148995114  0.0000
  O3     O3        0.101649432151776    0.818257787638851    0.903756059897997  0.0000
  O3     O3        0.364077031379986    0.922221992685266    0.907072679045753  0.0000
  O1     O1        0.128720409758354    0.170772527284837    0.875098224551861  0.0000
  O1     O1        0.584136776601134    0.792676696940741    0.142718938551422  0.0000
  O1     O1        0.917915496722436    0.254205958697288    0.140093573432602  0.0000
  O1     O1        0.519627726753258    0.002588515139075    0.960178188018193  0.0000
  O1     O1        0.982789323974722    0.047379212480120    0.955737230890091  0.0000
  O1     O1        0.158810497907349    0.489071471849022    0.346781786111562  0.0000
  O1     O1        0.341023898653900    0.564008821552263    0.353056213047894  0.0000
  O1     O1        0.843542913276686    0.560784030969252    0.676645834012042  0.0000
  O1     O1        0.656460869984737    0.481163753557931    0.679686449443707  0.0000
  O1     O1        0.268144895211949    0.254179197699516    0.287179370673500  0.0000
  O1     O1        0.233200311153586    0.806788184083230    0.303457841530168  0.0000
  O1     O1        0.769443646143010    0.249666540022233    0.735909601217154  0.0000
  O1     O1        0.730946356768578    0.790689625782341    0.734987051815708  0.0000
  O1     O1        0.139453870517252    0.272442565997193    0.132712386061573  0.0000
  O3     O3        0.361313078582221    0.781588581829839    0.138660303658185  0.0000
  O1     O1        0.882431119724497    0.387653878597772    0.897094517974480  0.0000
  O1     O1        0.616834632481462    0.660023457173655    0.898552036865025  0.0000
  O1     O1        0.859942820398091    0.775942283712131    0.891496206078708  0.0000
  O1     O1        0.641611664671470    0.271694919818897    0.897644342768684  0.0000
  O3     O3        0.119297565634275    0.687383115535230    0.134954269603689  0.0000
  O1     O1        0.389535181072723    0.377837304731219    0.140774992168289  0.0000
  O1     O1        0.660144956432368    0.482578165680193    0.116168359587298  0.0000
  O1     O1        0.841338469092490    0.565435382226953    0.113697445781592  0.0000
  O3     O3        0.355232277579180    0.589694335397207    0.932978910649461  0.0000
  O3     O3        0.152923689624811    0.514546980911162    0.929659615195206  0.0000
  O1     O1        0.768722546086919    0.249623843422255    0.055822150641001  0.0000
  O1     O1        0.732568199553291    0.797904930465912    0.050781277809157  0.0000
  O1     O1        0.268681762444545    0.286432806133429    0.975935794573386  0.0000
  O2     O2        0.239229587085613    0.774073785222158    0.000833746635033  0.0000
