data_c00004.vasp
_audit_creation_method             Generated by GULP
_audit_author_name                 Salvador R. G. Balestra
_symmetry_space_group_name_H-M     'P 1             '
_symmetry_Int_Tables_number        1

loop_
_symmetry_equiv_pos_site_id
_symmetry_equiv_pos_as_xyz
_cell_length_a                       17.6691
_cell_length_b                        7.8430
_cell_length_c                       10.3467
_cell_angle_alpha                   89.5046
_cell_angle_beta                    90.0367
_cell_angle_gamma                   91.1868

loop_
_atom_site_label
_atom_site_type_symbol
_atom_site_fract_x
_atom_site_fract_y
_atom_site_fract_z
_atom_site_charge
  Ge     Ge        0.052090000000021    0.000000000000000    0.372269999999958  0.0000
  Ge     Ge        0.450301885355277    0.049968782047678    0.416263520055040  0.0000
  Ge     Ge        0.952092022796694    0.044026660305780    0.629729958322158  0.0000
  Ge     Ge        0.554019550933569    0.992141879009380    0.667906262815808  0.0000
  Ge     Ge        0.558471446622410    0.993829316757945    0.172283450113873  0.0000
  Ge     Ge        0.949809181081567    0.055166512338757    0.114855263778558  0.0000
  Ge     Ge        0.453678870582041    0.066400742642540    0.922528794802695  0.0000
  Ge     Ge        0.060934659354821    0.004081813428682    0.871945176111134  0.0000
  Ge     Ge        0.176431566699428    0.280593686116263    0.297521891057021  0.0000
  Ge     Ge        0.328731376397172    0.765885221960559    0.305555342033012  0.0000
  Ge     Ge        0.857370674000144    0.355322026839707    0.747222776187618  0.0000
  Ge     Ge        0.650632639971698    0.675326509921602    0.737554374785698  0.0000
  Ge     Ge        0.830475707584325    0.758246346462042    0.739909262845427  0.0000
  Ge     Ge        0.678282096931905    0.272617912895134    0.741833003657188  0.0000
  Ge     Ge        0.149597243781610    0.685018429124782    0.303098670415698  0.0000
  Ge     Ge        0.356456745968880    0.363723291976268    0.296173142770209  0.0000
  Ge     Ge        0.677002391108656    0.279275766762351    0.055609022891136  0.0000
  Ge     Ge        0.830151038032883    0.758764861824802    0.052231982089560  0.0000
  Ge     Ge        0.355913112636226    0.380950527898634    0.979956838057902  0.0000
  Ge     Ge        0.329561625489027    0.779058879590790    0.992450037469511  0.0000
  Ge     Ge        0.175996425788830    0.300075583811480    0.984422537790935  0.0000
  Ge     Ge        0.649197989533360    0.680064445370264    0.052627559134377  0.0000
  Si     Si        0.152962501238699    0.697665399725750    0.996240932467527  0.0000
  Si     Si        0.852833115798223    0.365627574566923    0.054167545165417  0.0000
  O1     O1        0.128081998013304    0.138330406857708    0.393568199566620  0.0000
  O1     O1        0.375328333117007    0.910703982458703    0.400278375992140  0.0000
  O1     O1        0.927118498069910    0.247150540389868    0.671708830476967  0.0000
  O1     O1        0.586091205365101    0.788662754450866    0.649119950061232  0.0000
  O1     O1        0.876914558628927    0.904714725475200    0.644441862341999  0.0000
  O1     O1        0.629071808545983    0.132999729874727    0.646441921913329  0.0000
  O1     O1        0.082914378172661    0.793869095234039    0.387036320063652  0.0000
  O1     O1        0.424074481935568    0.253693872548029    0.378805908629109  0.0000
  O1     O1        0.977582835062207    0.042768974180529    0.468800968623424  0.0000
  O1     O1        0.477762876183331    0.040961724902343    0.576287819899574  0.0000
  O1     O1        0.025111277210078    0.030085287763604    0.213197540065788  0.0000
  O1     O1        0.528873481314223    0.993223582516209    0.330336425893187  0.0000
  O1     O1        0.031274338188681    0.986278872029684    0.714250400411661  0.0000
  O1     O1        0.527037702781477    0.011072130164679    0.828394834243379  0.0000
  O1     O1        0.636659525029796    0.125860619984745    0.152091222686156  0.0000
  O1     O1        0.881576521680502    0.898848891677986    0.143812316872096  0.0000
  O1     O1        0.421397949348603    0.269333586557490    0.895069237409588  0.0000
  O3     O3        0.093328614284967    0.804837472734882    0.915427115708946  0.0000
  O1     O1        0.376126414885837    0.930621198425739    0.903770667935615  0.0000
  O1     O1        0.128352601692886    0.163829079957034    0.883571481141948  0.0000
  O1     O1        0.582193239790377    0.788620941615461    0.135100354246034  0.0000
  O3     O3        0.911164317823570    0.255931780323725    0.136364295069941  0.0000
  O1     O1        0.483717137735899    0.061308441639327    0.081457628698181  0.0000
  O1     O1        0.981097480493933    0.049278211724409    0.957637196178328  0.0000
  O1     O1        0.160783486887283    0.482291700835659    0.357804328910502  0.0000
  O1     O1        0.343546171867494    0.561416739366971    0.361347122682989  0.0000
  O1     O1        0.845997750516561    0.555472440104365    0.683410719915918  0.0000
  O1     O1        0.663748138262804    0.475459906533737    0.680341044706346  0.0000
  O1     O1        0.272146818268379    0.248294554159169    0.299319834885958  0.0000
  O1     O1        0.233359586418697    0.800375107856381    0.310084677062183  0.0000
  O1     O1        0.773889766211100    0.238481517434612    0.737634546133828  0.0000
  O1     O1        0.734838130386903    0.790583328418524    0.738388706837772  0.0000
  O1     O1        0.145045148824435    0.267556335189683    0.139661497616247  0.0000
  O1     O1        0.361591732024565    0.788279244552941    0.149575603585342  0.0000
  O3     O3        0.881202141552351    0.390699805030813    0.907117929575102  0.0000
  O1     O1        0.620757825300122    0.657092566471551    0.895214052998186  0.0000
  O1     O1        0.862066852983973    0.781491768555342    0.896146539242937  0.0000
  O1     O1        0.645497041126037    0.258599907251442    0.898914980630217  0.0000
  O3     O3        0.123128532528344    0.671585383228408    0.141567917487950  0.0000
  O1     O1        0.383591983656654    0.396196642108759    0.139253244529544  0.0000
  O1     O1        0.657265324768758    0.477604503425958    0.114751436257963  0.0000
  O3     O3        0.841698250392337    0.551737885961629    0.112223898606013  0.0000
  O1     O1        0.347524468249870    0.584382356796481    0.923548986128937  0.0000
  O3     O3        0.164324259087754    0.511919917955623    0.936153977796119  0.0000
  O3     O3        0.774076435928425    0.257764072204841    0.049449005419001  0.0000
  O1     O1        0.734559278403209    0.791171968545839    0.057544868018986  0.0000
  O1     O1        0.271318439125276    0.267482909233695    0.976893963662694  0.0000
  O3     O3        0.232434384822810    0.803847600012937    0.997394131216058  0.0000
