data_c00012.vasp
_audit_creation_method             Generated by GULP
_audit_author_name                 Salvador R. G. Balestra
_symmetry_space_group_name_H-M     'P 1             '
_symmetry_Int_Tables_number        1

loop_
_symmetry_equiv_pos_site_id
_symmetry_equiv_pos_as_xyz
_cell_length_a                       17.6766
_cell_length_b                        7.8927
_cell_length_c                       10.2564
_cell_angle_alpha                   89.1868
_cell_angle_beta                    90.7737
_cell_angle_gamma                   88.0318

loop_
_atom_site_label
_atom_site_type_symbol
_atom_site_fract_x
_atom_site_fract_y
_atom_site_fract_z
_atom_site_charge
  Ge     Ge        0.052090000000021    0.000000000000000    0.372269999999958  0.0000
  Ge     Ge        0.444774278084875    0.955052744388004    0.362009781651707  0.0000
  Ge     Ge        0.946308699970707    0.947890413815371    0.621022261404107  0.0000
  Ge     Ge        0.549305448629804    0.011522107938371    0.615648498433386  0.0000
  Ge     Ge        0.549016528564571    0.001984108834103    0.110842482681421  0.0000
  Ge     Ge        0.950502889527780    0.936412836202654    0.115953101621129  0.0000
  Ge     Ge        0.441705116947605    0.949566633841386    0.859899869187736  0.0000
  Ge     Ge        0.055096463712454    0.999116635909509    0.868044824618588  0.0000
  Ge     Ge        0.148324413988139    0.313305948220873    0.301108832863240  0.0000
  Ge     Ge        0.352705460763713    0.637444426023994    0.293319838902138  0.0000
  Ge     Ge        0.825073164959287    0.237279838197814    0.731808579941994  0.0000
  Ge     Ge        0.671526417282269    0.718410050731081    0.731244615503987  0.0000
  Ge     Ge        0.852411944936609    0.636118510801126    0.735281201759427  0.0000
  Ge     Ge        0.644056528764729    0.319270184199010    0.730912611486823  0.0000
  Ge     Ge        0.171722375709004    0.711859478516297    0.295118474080132  0.0000
  Ge     Ge        0.646915386197230    0.314254644319288    0.048580617337257  0.0000
  Ge     Ge        0.852095952531343    0.626830370149402    0.053380277073037  0.0000
  Ge     Ge        0.323742537803126    0.240228775588632    0.982570774818577  0.0000
  Ge     Ge        0.349679435045588    0.638123633441803    0.979445771838442  0.0000
  Ge     Ge        0.142106139556025    0.316866925285757    0.986139939522540  0.0000
  Ge     Ge        0.672327750109146    0.712775978535981    0.048172950836650  0.0000
  Ge     Ge        0.826737455798829    0.228162636800438    0.048399322325579  0.0000
  Si     Si        0.326658884302572    0.245258064583289    0.292700361826546  0.0000
  Si     Si        0.169604403732970    0.709239173372927    0.986035819081872  0.0000
  O1     O1        0.089766602182404    0.195286479359799    0.394906284798322  0.0000
  O1     O1        0.411903357081912    0.754782350539828    0.387522304255850  0.0000
  O1     O1        0.871771421920422    0.088607554606263    0.640683935704107  0.0000
  O1     O1        0.624479848833110    0.871647288123595    0.640017800234828  0.0000
  O1     O1        0.918611472266327    0.745322180624708    0.651191141221005  0.0000
  O1     O1        0.577040901953142    0.213586144830748    0.645157905546452  0.0000
  O1     O1        0.124611735325707    0.850511776107945    0.392845121152907  0.0000
  O3     O3        0.372223524179097    0.107145951052622    0.381059238990390  0.0000
  O1     O1        0.973730926566981    0.963553055403119    0.460175357935623  0.0000
  O1     O1        0.521992939686147    0.998113826761818    0.453867991510390  0.0000
  O1     O1        0.026473050409508    0.981021651717481    0.209527615371857  0.0000
  O1     O1        0.471966809580154    0.962754959164674    0.200821225241376  0.0000
  O1     O1        0.026936864641843    0.993078251648399    0.707377839126603  0.0000
  O1     O1        0.469523032673353    0.962908215842293    0.700350552221980  0.0000
  O1     O1        0.583455476760897    0.200628204252886    0.135220820709236  0.0000
  O1     O1        0.916322275529719    0.736965756231019    0.141848090527123  0.0000
  O1     O1        0.367483340880025    0.087372040576305    0.893184511965467  0.0000
  O3     O3        0.130321333468082    0.856717523434091    0.897876226378116  0.0000
  O1     O1        0.409948922848378    0.748201810535019    0.885011565570376  0.0000
  O1     O1        0.079284153681354    0.205002767805132    0.896808975545714  0.0000
  O1     O1        0.621875259009347    0.854507853015662    0.139066074213317  0.0000
  O1     O1        0.876925939236250    0.081831593465565    0.140211939219367  0.0000
  O1     O1        0.520939074776895    0.992669895126377    0.949021049462026  0.0000
  O1     O1        0.977278784478260    0.946331426394547    0.954787254366907  0.0000
  O1     O1        0.155307078814870    0.512457924462423    0.358257312342085  0.0000
  O3     O3        0.341939354194611    0.432065653415369    0.348640543701830  0.0000
  O1     O1        0.840704240153229    0.438372712778665    0.672085356694557  0.0000
  O1     O1        0.655259645895208    0.520225215999889    0.669741579133051  0.0000
  O3     O3        0.237603483325453    0.213569913075868    0.293901633361834  0.0000
  O1     O1        0.266313864170825    0.744519589119641    0.296086217413828  0.0000
  O1     O1        0.729402514613154    0.206920840916983    0.727528813423762  0.0000
  O1     O1        0.767162011360209    0.749106053306374    0.730091048948016  0.0000
  O1     O1        0.112591022640128    0.319764623367516    0.144279958515455  0.0000
  O1     O1        0.384960349386218    0.633902822593599    0.136498974447020  0.0000
  O1     O1        0.857902174117358    0.220600292992564    0.889963075386395  0.0000
  O1     O1        0.640165859960224    0.726696039664879    0.888912022976725  0.0000
  O1     O1        0.881188610769038    0.609210292898192    0.894591102497000  0.0000
  O1     O1        0.615917862719962    0.338201479642147    0.889500184331656  0.0000
  O3     O3        0.139387780507993    0.720214039214503    0.133553733513345  0.0000
  O3     O3        0.355200760674080    0.236209593740625    0.143952573505481  0.0000
  O1     O1        0.659146028122866    0.510796004957121    0.110228816350785  0.0000
  O1     O1        0.840433554715681    0.426962409781426    0.112707953877816  0.0000
  O1     O1        0.344152509954966    0.437146916022641    0.921059528242565  0.0000
  O3     O3        0.150308932566619    0.524523774680730    0.930751294610340  0.0000
  O1     O1        0.731351845775608    0.197332149206030    0.047223512127684  0.0000
  O1     O1        0.767588789835850    0.744125226812798    0.051346288510574  0.0000
  O1     O1        0.228583804603008    0.212863773374053    0.976321745571022  0.0000
  O3     O3        0.259455105590182    0.731463254130551    0.986343594818209  0.0000
