data_c00018.vasp
_audit_creation_method             Generated by GULP
_audit_author_name                 Salvador R. G. Balestra
_symmetry_space_group_name_H-M     'P 1             '
_symmetry_Int_Tables_number        1

loop_
_symmetry_equiv_pos_site_id
_symmetry_equiv_pos_as_xyz
_cell_length_a                       17.7138
_cell_length_b                        7.8704
_cell_length_c                       10.1641
_cell_angle_alpha                   91.3224
_cell_angle_beta                    89.6295
_cell_angle_gamma                   88.5005

loop_
_atom_site_label
_atom_site_type_symbol
_atom_site_fract_x
_atom_site_fract_y
_atom_site_fract_z
_atom_site_charge
  Ge     Ge        0.052090000000021    0.000000000000000    0.372269999999958  0.0000
  Ge     Ge        0.445497773794040    0.958291566214222    0.379247075780352  0.0000
  Ge     Ge        0.944791397113569    0.932276150229221    0.620462614518784  0.0000
  Ge     Ge        0.555735603038087    0.991196279386946    0.624289668902179  0.0000
  Ge     Ge        0.544560359374540    0.015575388389870    0.118952354454006  0.0000
  Ge     Ge        0.945791353999670    0.951964650416452    0.121900520299493  0.0000
  Ge     Ge        0.441695633162642    0.948108738170600    0.865165006745120  0.0000
  Ge     Ge        0.050373191082174    0.003972309930435    0.869617180924183  0.0000
  Ge     Ge        0.144142505070664    0.319631234251888    0.304407438194547  0.0000
  Ge     Ge        0.347706261972593    0.642508594635253    0.311012348810129  0.0000
  Ge     Ge        0.823899378650861    0.223462614859997    0.738969795147367  0.0000
  Ge     Ge        0.670203366427287    0.694680391238006    0.731426178955132  0.0000
  Ge     Ge        0.852089707709470    0.621355582246466    0.732989665880415  0.0000
  Ge     Ge        0.325328970626302    0.242794152993073    0.302848271444003  0.0000
  Ge     Ge        0.645508521578111    0.323019685538208    0.060176443615545  0.0000
  Ge     Ge        0.847166585202122    0.639791000602498    0.053086916686752  0.0000
  Ge     Ge        0.322584107110821    0.237531984118676    0.984469624601861  0.0000
  Ge     Ge        0.171266370389122    0.719378598739498    0.992852146875112  0.0000
  Ge     Ge        0.350766348216853    0.639760267168340    0.989830716522955  0.0000
  Ge     Ge        0.141310742373914    0.318223824533985    0.988310530955596  0.0000
  Ge     Ge        0.667972203794567    0.724650113199833    0.048092217065636  0.0000
  Ge     Ge        0.822891518130170    0.238848593819110    0.059824778376599  0.0000
  Si     Si        0.647567660627134    0.302270059147129    0.744725701734120  0.0000
  Si     Si        0.170823300167316    0.712140573795593    0.306773825382549  0.0000
  O1     O1        0.085979578551250    0.200335049810647    0.399722749293670  0.0000
  O1     O1        0.408826982877447    0.761010486846331    0.402254799447932  0.0000
  O1     O1        0.866941451927003    0.062234272607370    0.650281921426080  0.0000
  O1     O1        0.623892663446146    0.834059431071972    0.630979858552467  0.0000
  O1     O1        0.918354921752419    0.727466863313096    0.645423643486293  0.0000
  O3     O3        0.586265498217597    0.190730757454189    0.669870687854776  0.0000
  O3     O3        0.124098172818546    0.849278423060646    0.395285552278320  0.0000
  O1     O1        0.372746843501194    0.105228774924601    0.402087259991412  0.0000
  O1     O1        0.972886702484784    0.955972465237669    0.459244073590970  0.0000
  O1     O1        0.525905226895287    0.999349598342078    0.462797728571625  0.0000
  O1     O1        0.024952231038010    0.989885895671118    0.209079110162011  0.0000
  O1     O1        0.469295296519043    0.971575899892399    0.213770172480070  0.0000
  O1     O1        0.023736750879495    0.985633839798273    0.707665382000954  0.0000
  O1     O1        0.473674071882933    0.944898292126912    0.705139910020284  0.0000
  O1     O1        0.578339579636644    0.217894592450481    0.144184880884797  0.0000
  O1     O1        0.909049596130585    0.754646595616885    0.145349241490680  0.0000
  O1     O1        0.365503509811980    0.085780604908701    0.884748535955285  0.0000
  O1     O1        0.125553459287942    0.870516081550880    0.904544063354296  0.0000
  O1     O1        0.417177960037865    0.744889437019324    0.903612856192893  0.0000
  O1     O1        0.076800375868185    0.210478075925141    0.896625514251285  0.0000
  O1     O1        0.618146214733320    0.871100185396642    0.141048822942669  0.0000
  O1     O1        0.875512539045916    0.103655937046348    0.152741610330756  0.0000
  O1     O1        0.517224567814980    0.010165375267795    0.956771399679366  0.0000
  O1     O1        0.971737050445474    0.954982133576425    0.957699417457098  0.0000
  O3     O3        0.156434155701427    0.524825425089238    0.363169621188975  0.0000
  O1     O1        0.340348857759949    0.443378732479078    0.369063270923023  0.0000
  O1     O1        0.844571609077409    0.416388816303831    0.673462244565996  0.0000
  O3     O3        0.656571980070114    0.485030513193994    0.679169509716850  0.0000
  O1     O1        0.230083680412254    0.212668205586532    0.298981049649484  0.0000
  O3     O3        0.259526092727772    0.746878109679329    0.309826796082448  0.0000
  O3     O3        0.726991890474408    0.197304398785840    0.739400836568318  0.0000
  O1     O1        0.765479873099574    0.725692355919566    0.726212719221576  0.0000
  O1     O1        0.108764425599525    0.328725723438504    0.148309106137470  0.0000
  O1     O1        0.378711492569015    0.625863701439360    0.150742937015772  0.0000
  O1     O1        0.853846532119248    0.219129725275126    0.898943553959456  0.0000
  O1     O1        0.636136972768484    0.732526613603891    0.887942639246313  0.0000
  O1     O1        0.879734578012636    0.610996787501010    0.894107338104132  0.0000
  O3     O3        0.622954157826054    0.340139330226452    0.894607979165277  0.0000
  O3     O3        0.142179105283382    0.720502441775064    0.156519066233337  0.0000
  O1     O1        0.357285468512305    0.225446304098578    0.142067946927254  0.0000
  O1     O1        0.654898549249163    0.526912817406335    0.115185200887777  0.0000
  O1     O1        0.833885872280957    0.445047793762564    0.117578393671638  0.0000
  O1     O1        0.339256274034704    0.438119150728349    0.927415387341540  0.0000
  O1     O1        0.152170012844414    0.519300647537162    0.930939593364797  0.0000
  O1     O1        0.728150474934722    0.203208244351435    0.068796953739897  0.0000
  O1     O1        0.763252125465373    0.756356497287255    0.045642048903843  0.0000
  O1     O1        0.227006612241019    0.209903540794857    0.986352246157103  0.0000
  O1     O1        0.266064393773771    0.752410597198953    0.984654906036455  0.0000
