data_c00036.vasp
_audit_creation_method             Generated by GULP
_audit_author_name                 Salvador R. G. Balestra
_symmetry_space_group_name_H-M     'P 1             '
_symmetry_Int_Tables_number        1

loop_
_symmetry_equiv_pos_site_id
_symmetry_equiv_pos_as_xyz
_cell_length_a                       17.8159
_cell_length_b                        7.8898
_cell_length_c                       10.4253
_cell_angle_alpha                   90.4659
_cell_angle_beta                    90.5257
_cell_angle_gamma                   90.2771

loop_
_atom_site_label
_atom_site_type_symbol
_atom_site_fract_x
_atom_site_fract_y
_atom_site_fract_z
_atom_site_charge
  Ge     Ge        0.052090000000021    0.000000000000000    0.372269999999958  0.0000
  Ge     Ge        0.449989338188686    0.974559295891393    0.411673261265399  0.0000
  Ge     Ge        0.947170549510176    0.009943070037863    0.622640956448347  0.0000
  Ge     Ge        0.555559663835067    0.975973032171438    0.162497985032044  0.0000
  Ge     Ge        0.950971698220208    0.000710989501787    0.113868427908658  0.0000
  Ge     Ge        0.448393691329087    0.972485099120317    0.910033100782645  0.0000
  Ge     Ge        0.058574521421279    0.996084053063557    0.868604201359025  0.0000
  Ge     Ge        0.151888402104585    0.311931689056681    0.296177390454576  0.0000
  Ge     Ge        0.351253230472350    0.662297520084670    0.296787124167888  0.0000
  Ge     Ge        0.846173968017090    0.317735808084161    0.728516667462170  0.0000
  Ge     Ge        0.646922244247230    0.670536304202245    0.738821778103995  0.0000
  Ge     Ge        0.827712772986579    0.721875060842051    0.738633473994705  0.0000
  Ge     Ge        0.665051704171792    0.265647342928642    0.732691863922185  0.0000
  Ge     Ge        0.171594513473286    0.719822330707021    0.295935234722068  0.0000
  Ge     Ge        0.330311251535103    0.254907283345279    0.297443935344256  0.0000
  Ge     Ge        0.672446154894885    0.257169886323650    0.043769298244394  0.0000
  Ge     Ge        0.828467210541598    0.718403196570339    0.050432299252280  0.0000
  Ge     Ge        0.329246697559805    0.252031082809628    0.986114312636392  0.0000
  Ge     Ge        0.170793406651051    0.705920096368454    0.985732020619390  0.0000
  Ge     Ge        0.351455409814661    0.654504868657038    0.984203072241019  0.0000
  Ge     Ge        0.648557743380841    0.661275153289338    0.051006929025579  0.0000
  Ge     Ge        0.852157574299117    0.316457572943061    0.040753694922986  0.0000
  Si     Si        0.550382812807485    0.979468612911689    0.662868142240201  0.0000
  Si     Si        0.152515377685748    0.305400743379954    0.991385702181084  0.0000
  O1     O1        0.089376147517879    0.201016580216177    0.386435397357562  0.0000
  O1     O1        0.415638289015895    0.773833575401909    0.386358076372576  0.0000
  O1     O1        0.908806568278676    0.207735958129974    0.637114211526834  0.0000
  O3     O3        0.587158672737195    0.794711031224733    0.647743230464433  0.0000
  O1     O1        0.878164397466739    0.864143220321717    0.652172546049915  0.0000
  O3     O3        0.612947077335545    0.123876308809614    0.640296179809085  0.0000
  O1     O1        0.121880650080401    0.852232015743259    0.393603528790387  0.0000
  O1     O1        0.379523654802410    0.118790100840029    0.392001593264086  0.0000
  O1     O1        0.975906677879851    0.977116160978021    0.466876703122323  0.0000
  O3     O3        0.479652835041536    0.995995516139289    0.569792119774849  0.0000
  O1     O1        0.024506112330008    0.970677419233287    0.214372807003863  0.0000
  O1     O1        0.525724029277282    0.010544160812833    0.316143594480223  0.0000
  O1     O1        0.028143823456415    0.992443406724221    0.712075783712884  0.0000
  O3     O3        0.521880249849110    0.004722010761686    0.808515184737894  0.0000
  O1     O1        0.629713716171515    0.110289765034545    0.136692651103591  0.0000
  O1     O1        0.879062085224152    0.858337308491508    0.141266769298489  0.0000
  O1     O1        0.374013863850127    0.109882780812548    0.890566212507643  0.0000
  O1     O1        0.122894553404576    0.836143263977835    0.884487754757327  0.0000
  O1     O1        0.413420834649431    0.770344462514583    0.895521028429930  0.0000
  O3     O3        0.095770151285301    0.194329240909681    0.905901915329908  0.0000
  O1     O1        0.585401427221413    0.770504249598261    0.141422814655167  0.0000
  O1     O1        0.914958993161582    0.201749689077075    0.128715061009718  0.0000
  O1     O1        0.481194168177940    0.015432648616406    0.062406927799013  0.0000
  O1     O1        0.980602299102073    0.963851020912688    0.959223482770990  0.0000
  O1     O1        0.160222015837876    0.515089834397322    0.350105236725045  0.0000
  O1     O1        0.341228036832300    0.460529934635434    0.352589496087482  0.0000
  O1     O1        0.837470300865576    0.521067770092980    0.674661347666903  0.0000
  O1     O1        0.651622300630966    0.469150118912163    0.677310430457463  0.0000
  O1     O1        0.236355537798686    0.207827290894716    0.302180923211188  0.0000
  O1     O1        0.265901303122749    0.764620192630929    0.298953854062853  0.0000
  O1     O1        0.759008176480522    0.221072831292881    0.724270099307588  0.0000
  O1     O1        0.733582781890907    0.767406807483189    0.738462367943848  0.0000
  O3     O3        0.122402942985916    0.314689858824261    0.136315204361384  0.0000
  O1     O1        0.382313400791258    0.655390799223277    0.141241599267870  0.0000
  O1     O1        0.880430529706051    0.321383081099274    0.883284166768113  0.0000
  O1     O1        0.616453655855128    0.660439062068774    0.894440040904942  0.0000
  O1     O1        0.859022656666972    0.722485071058820    0.894188171058059  0.0000
  O1     O1        0.637323380766866    0.257052404106260    0.889663702003580  0.0000
  O1     O1        0.139698839377010    0.732163158527472    0.139507157350994  0.0000
  O1     O1        0.361182226090544    0.242698208225661    0.142163689746973  0.0000
  O1     O1        0.658610638743677    0.458659099993290    0.105174179032363  0.0000
  O1     O1        0.842569768104660    0.514589402741584    0.104653902167005  0.0000
  O1     O1        0.345822032177904    0.451757213349023    0.927162039188185  0.0000
  O3     O3        0.159754045058057    0.494820847630977    0.937688539983012  0.0000
  O1     O1        0.766330113246913    0.214642617536549    0.038322549803238  0.0000
  O1     O1        0.734566375514191    0.762061549317532    0.054543354432406  0.0000
  O3     O3        0.233468200720660    0.214884693059626    0.990536341742452  0.0000
  O1     O1        0.264847485276577    0.750267735833466    0.981491848374625  0.0000
