data_c00022.vasp
_audit_creation_method             Generated by GULP
_audit_author_name                 Salvador R. G. Balestra
_symmetry_space_group_name_H-M     'P 1             '
_symmetry_Int_Tables_number        1

loop_
_symmetry_equiv_pos_site_id
_symmetry_equiv_pos_as_xyz
_cell_length_a                       17.6343
_cell_length_b                        7.8850
_cell_length_c                       10.2030
_cell_angle_alpha                   88.9386
_cell_angle_beta                    90.3146
_cell_angle_gamma                   88.3177

loop_
_atom_site_label
_atom_site_type_symbol
_atom_site_fract_x
_atom_site_fract_y
_atom_site_fract_z
_atom_site_charge
  Ge     Ge        0.052090000000021    0.000000000000000    0.372269999999958  0.0000
  Ge     Ge        0.449538393440150    0.945743912592784    0.329879480222899  0.0000
  Ge     Ge        0.941460067955056    0.966711993214102    0.621201799643955  0.0000
  Ge     Ge        0.555760198079507    0.015444002340985    0.576119586697546  0.0000
  Ge     Ge        0.548319687562069    0.019445312396437    0.072420979430309  0.0000
  Ge     Ge        0.945435321874111    0.959570862368229    0.121257294922833  0.0000
  Ge     Ge        0.444079918945516    0.960876992480073    0.818667510178138  0.0000
  Ge     Ge        0.048761546607547    0.023786328218640    0.870746284534629  0.0000
  Ge     Ge        0.145245427537489    0.314971110796719    0.252817341006768  0.0000
  Ge     Ge        0.353594507995768    0.632890096184660    0.259957244414590  0.0000
  Ge     Ge        0.826160809448334    0.265973334089830    0.685708299187800  0.0000
  Ge     Ge        0.641976768927707    0.337108909140848    0.689553470956219  0.0000
  Ge     Ge        0.172638609328097    0.714997589285628    0.258298308713057  0.0000
  Ge     Ge        0.326502232683128    0.233020337617675    0.255518270763261  0.0000
  Ge     Ge        0.644985337016167    0.332083461728871    0.006714624318088  0.0000
  Ge     Ge        0.852218521173652    0.653862516269294    0.998043593790148  0.0000
  Ge     Ge        0.325224018375360    0.245387054953789    0.937329907329233  0.0000
  Ge     Ge        0.172133601418690    0.732513492258918    0.940880989679736  0.0000
  Ge     Ge        0.352949795357976    0.646933302180440    0.941909456724050  0.0000
  Ge     Ge        0.145249663252472    0.334265430866712    0.934184607029301  0.0000
  Ge     Ge        0.672820509625428    0.732000689379114    0.004447242742498  0.0000
  Ge     Ge        0.826016567472072    0.250553234055421    0.002670807515771  0.0000
  Si     Si        0.668290945537994    0.725460288885297    0.694523974330197  0.0000
  Si     Si        0.845302411932333    0.654414195704315    0.687600159823094  0.0000
  O1     O1        0.079482606705537    0.203320282859669    0.338613310348705  0.0000
  O1     O1        0.416985286573955    0.744303454113662    0.351074982980994  0.0000
  O1     O1        0.875529005370916    0.127255752390149    0.589089929621999  0.0000
  O3     O3        0.633077371405475    0.881154382834223    0.610834063494569  0.0000
  O3     O3        0.896517650520983    0.775614928406197    0.600562464217700  0.0000
  O1     O1        0.580869916702163    0.221486347774906    0.597977748933631  0.0000
  O1     O1        0.127183775653673    0.860270205170761    0.354709310126073  0.0000
  O1     O1        0.375752379942055    0.089754162148306    0.353475785319040  0.0000
  O1     O1        0.022152936491041    0.985836525960913    0.532846324846220  0.0000
  O1     O1        0.530012424357366    0.987983775977556    0.414977098847190  0.0000
  O1     O1        0.973475935680495    0.950111246688653    0.282558978254422  0.0000
  O1     O1        0.473069862308385    0.969514249746260    0.165633751115995  0.0000
  O1     O1        0.970269251143113    0.978734124618189    0.782701870463120  0.0000
  O1     O1        0.474847238449636    0.965761702675384    0.658828664004032  0.0000
  O1     O1        0.583018284359453    0.218046851707387    0.099358880730318  0.0000
  O1     O1        0.921330665856698    0.757767577766890    0.077501578129179  0.0000
  O1     O1        0.368428278946515    0.100099285498675    0.838342236855658  0.0000
  O1     O1        0.122372772569453    0.879053687365558    0.847779549242769  0.0000
  O1     O1        0.418191245234076    0.756807833920504    0.854321949731169  0.0000
  O1     O1        0.082283589401570    0.224295908110936    0.842478523497638  0.0000
  O1     O1        0.622537906510798    0.873459870368028    0.094468021695014  0.0000
  O1     O1        0.870114162928104    0.100804523615505    0.101432618063498  0.0000
  O1     O1        0.520098403013320    0.018664124825250    0.910414572135043  0.0000
  O1     O1        0.022621006173891    0.021277901159606    0.033785075859527  0.0000
  O1     O1        0.157892658128306    0.512226284137400    0.316944950194239  0.0000
  O1     O1        0.341773357773996    0.431901522270651    0.318293549369846  0.0000
  O3     O3        0.842955549990786    0.470186361484164    0.626441053371117  0.0000
  O3     O3        0.645593902929141    0.547010089761706    0.633450455198626  0.0000
  O1     O1        0.230692413307275    0.201652975111152    0.255730058514838  0.0000
  O1     O1        0.268461635676422    0.746347352811491    0.257967721086813  0.0000
  O1     O1        0.730377786271245    0.240127834405701    0.680461011083852  0.0000
  O2     O2        0.759854207191240    0.735332077625817    0.700134162120700  0.0000
  O1     O1        0.115468943606214    0.349047997354568    0.094263923927676  0.0000
  O1     O1        0.384385241643832    0.620376352574130    0.100618198108412  0.0000
  O1     O1        0.858358120384714    0.236422228025905    0.844197779683983  0.0000
  O3     O3        0.639411887049331    0.737802062419246    0.843210482834836  0.0000
  O3     O3        0.877853030422681    0.637265433535554    0.834732835719813  0.0000
  O1     O1        0.611358659897373    0.343284847167516    0.847538698186130  0.0000
  O1     O1        0.139549124349392    0.738991565914861    0.099849465110221  0.0000
  O1     O1        0.358544718067920    0.224474246970638    0.096029008349654  0.0000
  O1     O1        0.657685298244689    0.529723155395888    0.065480808176050  0.0000
  O1     O1        0.842467934325890    0.451924148450316    0.058462570105269  0.0000
  O1     O1        0.340699647781139    0.449042903079050    0.879889416947353  0.0000
  O1     O1        0.157632756306912    0.534830974278887    0.875450088322880  0.0000
  O1     O1        0.730393559002251    0.220559764534214    0.001139864935778  0.0000
  O1     O1        0.767814955842862    0.767742951272800    0.011932268480804  0.0000
  O1     O1        0.229433027196735    0.217124431998194    0.938448265684739  0.0000
  O1     O1        0.268030713179447    0.761957328773025    0.941075179498110  0.0000
