data_c00016.vasp
_audit_creation_method             Generated by GULP
_audit_author_name                 Salvador R. G. Balestra
_symmetry_space_group_name_H-M     'P 1             '
_symmetry_Int_Tables_number        1

loop_
_symmetry_equiv_pos_site_id
_symmetry_equiv_pos_as_xyz
_cell_length_a                       17.6758
_cell_length_b                        7.8862
_cell_length_c                       10.1967
_cell_angle_alpha                   89.9022
_cell_angle_beta                    89.9873
_cell_angle_gamma                   87.9792

loop_
_atom_site_label
_atom_site_type_symbol
_atom_site_fract_x
_atom_site_fract_y
_atom_site_fract_z
_atom_site_charge
  Ge     Ge        0.052090000000021    0.000000000000000    0.372269999999958  0.0000
  Ge     Ge        0.437649050782032    0.960509200082003    0.418865033131648  0.0000
  Ge     Ge        0.943289782202378    0.953467617091033    0.622181819002694  0.0000
  Ge     Ge        0.545333576502578    0.017099661820588    0.664859544695803  0.0000
  Ge     Ge        0.549803222641982    0.012912227845880    0.176470069906943  0.0000
  Ge     Ge        0.944515967715188    0.949255180222012    0.123169788469757  0.0000
  Ge     Ge        0.446254012865204    0.951323322899964    0.922709867550204  0.0000
  Ge     Ge        0.048503380902769    0.011833440745722    0.872316844755087  0.0000
  Ge     Ge        0.145204652844334    0.320141245811874    0.306363455020088  0.0000
  Ge     Ge        0.348432664987571    0.640825335692984    0.304417230519496  0.0000
  Ge     Ge        0.822191371498957    0.244304183982179    0.737600920458479  0.0000
  Ge     Ge        0.667758092248766    0.728489307639545    0.737963718963948  0.0000
  Ge     Ge        0.848481988562638    0.644578739992921    0.739722135179206  0.0000
  Ge     Ge        0.641847503207813    0.328146801613379    0.735976537316144  0.0000
  Ge     Ge        0.640718180850375    0.323932494125279    0.054598521352561  0.0000
  Ge     Ge        0.848880166196513    0.636372936509050    0.058361719351485  0.0000
  Ge     Ge        0.321709878121946    0.241759796205831    0.990165086019496  0.0000
  Ge     Ge        0.169229654125119    0.720792441654637    0.995194679612329  0.0000
  Ge     Ge        0.349396241845902    0.641053938487201    0.987137549322424  0.0000
  Ge     Ge        0.140738539881608    0.319554084252646    0.990636074470721  0.0000
  Ge     Ge        0.668839969091648    0.725102475999701    0.056344704634671  0.0000
  Ge     Ge        0.821454587163423    0.238678513872714    0.055732016917889  0.0000
  Si     Si        0.168813064272561    0.708323824595913    0.307313140481692  0.0000
  Si     Si        0.324845352836717    0.250915727599559    0.299993498402433  0.0000
  O1     O1        0.089725198542174    0.194997612719027    0.400823339836614  0.0000
  O1     O1        0.407746759998833    0.757513296714603    0.397426921114353  0.0000
  O1     O1        0.869196710293832    0.096814558310348    0.642582838452724  0.0000
  O1     O1        0.617979578537878    0.868921185161761    0.640228091600075  0.0000
  O1     O1        0.914399547788875    0.752062651724165    0.652836047871157  0.0000
  O1     O1        0.579178617654372    0.216488002567211    0.643999757580541  0.0000
  O3     O3        0.124411621580865    0.847473078396169    0.394414955966369  0.0000
  O3     O3        0.363950132370502    0.102813012343926    0.385720732952812  0.0000
  O1     O1        0.973168918643772    0.962629420962193    0.461034080346861  0.0000
  O1     O1        0.464482614507949    0.980505668077376    0.580430998114362  0.0000
  O1     O1        0.022870184654388    0.993926727517630    0.210641733958305  0.0000
  O1     O1        0.519447027201252    0.002771374855095    0.336600470007201  0.0000
  O1     O1        0.022323343200365    0.001282584806523    0.710496493072597  0.0000
  O1     O1        0.521801482268316    0.997317242362886    0.829420073631451  0.0000
  O1     O1        0.575589386097247    0.216876137807287    0.143189971732987  0.0000
  O1     O1        0.912123869933315    0.748319324418514    0.148022376067738  0.0000
  O1     O1        0.371988718761931    0.096798527229752    0.900317588669739  0.0000
  O1     O1        0.123645746058136    0.874519587017447    0.905776336537409  0.0000
  O1     O1        0.412295470097739    0.752022914072589    0.896058719603811  0.0000
  O1     O1        0.075152181177867    0.216239968635833    0.901032408537324  0.0000
  O1     O1        0.626004610439874    0.874824026256272    0.154253583582084  0.0000
  O1     O1        0.870534762493230    0.093515396101475    0.149372417321078  0.0000
  O1     O1        0.473968620077976    0.956322815455394    0.084721838308406  0.0000
  O1     O1        0.970216916142163    0.959501925253311    0.959742150862822  0.0000
  O3     O3        0.151069993470196    0.523402249946787    0.366276243613545  0.0000
  O3     O3        0.343494039661938    0.433559545844604    0.360834574979634  0.0000
  O1     O1        0.836187356329633    0.445447193147916    0.677328156967300  0.0000
  O1     O1        0.653789712463365    0.527296446334719    0.676803191615897  0.0000
  O3     O3        0.235257621100042    0.227520871666038    0.296466820006849  0.0000
  O3     O3        0.258196439710128    0.734749151687781    0.308682462883733  0.0000
  O1     O1        0.726678750980577    0.212875683524270    0.737816618888647  0.0000
  O1     O1        0.763373112553895    0.759398600793661    0.736750048580194  0.0000
  O1     O1        0.109643359814251    0.325383176971296    0.150397131885772  0.0000
  O1     O1        0.381022903156749    0.634971379970209    0.147417753244171  0.0000
  O1     O1        0.854205286813694    0.228453072456406    0.896457761232504  0.0000
  O1     O1        0.635813719123281    0.741082449903143    0.897767672395466  0.0000
  O1     O1        0.878866300801043    0.617865925441316    0.898225789624180  0.0000
  O1     O1        0.610333214779321    0.344474740588709    0.895338592277272  0.0000
  O3     O3        0.139166618131234    0.719942208851686    0.157594292059047  0.0000
  O3     O3        0.355000963197727    0.239932126244347    0.151151794693452  0.0000
  O1     O1        0.652545631964455    0.523885127797822    0.115145155780166  0.0000
  O1     O1        0.836694489174766    0.438139947233140    0.119338365037962  0.0000
  O1     O1        0.337775322534397    0.442038272842253    0.928661810443402  0.0000
  O1     O1        0.151416498249991    0.522146288307436    0.934307652762516  0.0000
  O1     O1        0.725929791601402    0.209767023709427    0.056539438603481  0.0000
  O1     O1        0.764435518911923    0.752523337351848    0.054580012132727  0.0000
  O1     O1        0.226924124513510    0.209443129251202    0.984202127211825  0.0000
  O1     O1        0.263962923577262    0.753491611999443    0.989317804465841  0.0000
