data_c00039.vasp
_audit_creation_method             Generated by GULP
_audit_author_name                 Salvador R. G. Balestra
_symmetry_space_group_name_H-M     'P 1             '
_symmetry_Int_Tables_number        1

loop_
_symmetry_equiv_pos_site_id
_symmetry_equiv_pos_as_xyz
_cell_length_a                       17.6360
_cell_length_b                        7.8568
_cell_length_c                       10.1968
_cell_angle_alpha                   90.5533
_cell_angle_beta                    90.3637
_cell_angle_gamma                   91.3615

loop_
_atom_site_label
_atom_site_type_symbol
_atom_site_fract_x
_atom_site_fract_y
_atom_site_fract_z
_atom_site_charge
  Ge     Ge        0.052090000000021    0.000000000000000    0.372269999999958  0.0000
  Ge     Ge        0.441171511560657    0.054878373003119    0.379729337779452  0.0000
  Ge     Ge        0.941631535703856    0.039525117409133    0.617121769149668  0.0000
  Ge     Ge        0.548496538481432    0.993753329403670    0.129721229191306  0.0000
  Ge     Ge        0.939899992777977    0.050059007477116    0.128866566994092  0.0000
  Ge     Ge        0.445175895695072    0.052960540090577    0.872399034557497  0.0000
  Ge     Ge        0.043191854151012    0.986870148002505    0.875838354104484  0.0000
  Ge     Ge        0.167747475820163    0.296406685170644    0.263999921856591  0.0000
  Ge     Ge        0.321006147024036    0.769478574197606    0.261997314067838  0.0000
  Ge     Ge        0.842977438995407    0.353303549030505    0.686989903719930  0.0000
  Ge     Ge        0.637618869815960    0.679703678167517    0.692061663174145  0.0000
  Ge     Ge        0.819024478651132    0.755415134763581    0.691174051958339  0.0000
  Ge     Ge        0.661491915635450    0.278292871745362    0.694626473135616  0.0000
  Ge     Ge        0.350246514609012    0.370075475350521    0.264583186675386  0.0000
  Ge     Ge        0.668039587153391    0.278041014314757    0.013231028977683  0.0000
  Ge     Ge        0.819376830758504    0.763264669532542    0.009245040181415  0.0000
  Ge     Ge        0.346354409516505    0.361995550239043    0.945495848336734  0.0000
  Ge     Ge        0.144181756883098    0.678985305360416    0.939870841520588  0.0000
  Ge     Ge        0.322211560238390    0.765678023490967    0.943887643562499  0.0000
  Ge     Ge        0.166825963930052    0.275733522339786    0.948387836489235  0.0000
  Ge     Ge        0.638789708217661    0.678469601168858    0.009652050769028  0.0000
  Ge     Ge        0.848509035300387    0.360888979464168    0.005965334480019  0.0000
  Si     Si        0.544699829474538    0.991787783037466    0.624330800748961  0.0000
  Si     Si        0.143735896408712    0.689799208069062    0.252740754116644  0.0000
  O1     O1        0.121366086787333    0.155214845178833    0.363790597526724  0.0000
  O1     O1        0.361875232794134    0.927844709592317    0.355219370056343  0.0000
  O1     O1        0.905309781984246    0.238357999578935    0.595078037958389  0.0000
  O3     O3        0.575236314750160    0.802719012134427    0.602505987454588  0.0000
  O1     O1        0.868804424284328    0.892478540832301    0.593337962412633  0.0000
  O3     O3        0.611374456175169    0.130956488903950    0.598641770483903  0.0000
  O3     O3        0.082634164025680    0.799471582157197    0.329809635023183  0.0000
  O1     O1        0.416082914456956    0.261097868208377    0.353104638126248  0.0000
  O1     O1        0.021870538368625    0.995880453021803    0.533100406675679  0.0000
  O3     O3        0.470017757174599    0.029870642705678    0.541817081605657  0.0000
  O1     O1        0.970536841085342    0.047759746270863    0.289095013690906  0.0000
  O1     O1        0.517558044828442    0.997266687880241    0.288874678954396  0.0000
  O1     O1        0.966827465321373    0.028235161527617    0.781805230904902  0.0000
  O3     O3        0.522574983973782    0.010864741160925    0.778049909534018  0.0000
  O1     O1        0.625479248220491    0.129002583669469    0.110473658016040  0.0000
  O1     O1        0.863057989966631    0.914294887406555    0.106500570152827  0.0000
  O1     O1        0.408165440349398    0.251105657482775    0.850229956694452  0.0000
  O1     O1        0.078075399989766    0.785297925394740    0.852246697033934  0.0000
  O1     O1        0.374195437485548    0.901417229636216    0.849150480398131  0.0000
  O1     O1        0.116203022854118    0.133880302152501    0.853711216346031  0.0000
  O1     O1        0.572669835799722    0.787425533015568    0.095656027613489  0.0000
  O1     O1        0.915473802370868    0.255159112639776    0.092355383755411  0.0000
  O1     O1        0.474160868884515    0.054251317377836    0.033993351031014  0.0000
  O1     O1        0.015842060470039    0.990050231826196    0.037784204035434  0.0000
  O3     O3        0.153399366705556    0.505099921580880    0.316698800270342  0.0000
  O1     O1        0.341792761402948    0.573720685092905    0.324606228610803  0.0000
  O1     O1        0.830623091985081    0.552861185293062    0.628003616288653  0.0000
  O1     O1        0.646071174582405    0.478010565458366    0.630353967596388  0.0000
  O1     O1        0.263441443091539    0.265016406203812    0.269244583064381  0.0000
  O3     O3        0.223676922270123    0.793939675870080    0.256899533093637  0.0000
  O1     O1        0.756898437558425    0.243053040878551    0.690038425874308  0.0000
  O1     O1        0.723328944113490    0.789325549985342    0.692841283710575  0.0000
  O1     O1        0.134145285225969    0.263252943086088    0.107470252825279  0.0000
  O1     O1        0.353746692277775    0.784114472049402    0.104007897876207  0.0000
  O1     O1        0.876124812765128    0.376294016664089    0.845257247246606  0.0000
  O1     O1        0.607408701874262    0.655542674105457    0.850252352147937  0.0000
  O1     O1        0.851894790082338    0.773711999361788    0.850550844663899  0.0000
  O1     O1        0.632768435108467    0.267982239200092    0.855285190343182  0.0000
  O3     O3        0.118028987974179    0.657966602545474    0.103408519713712  0.0000
  O1     O1        0.378816228918219    0.384502874730478    0.104519551986095  0.0000
  O1     O1        0.651939484331967    0.480363799505862    0.073269358855734  0.0000
  O1     O1        0.836571332074190    0.562097813342092    0.067528927418712  0.0000
  O1     O1        0.332770152877210    0.560221277205812    0.885528130140800  0.0000
  O1     O1        0.154981700539978    0.476743248226236    0.883859446240426  0.0000
  O1     O1        0.763753001589155    0.247209052004952    0.009997101808240  0.0000
  O1     O1        0.723345027285635    0.792553897558651    0.008912403033615  0.0000
  O1     O1        0.262511974327825    0.243395160188788    0.951221286460090  0.0000
  O1     O1        0.226818268926136    0.800670110044756    0.936722287153326  0.0000
