data_c00042.vasp
_audit_creation_method             Generated by GULP
_audit_author_name                 Salvador R. G. Balestra
_symmetry_space_group_name_H-M     'P 1             '
_symmetry_Int_Tables_number        1

loop_
_symmetry_equiv_pos_site_id
_symmetry_equiv_pos_as_xyz
_cell_length_a                       17.5523
_cell_length_b                        7.8663
_cell_length_c                       10.2940
_cell_angle_alpha                   89.6724
_cell_angle_beta                    90.8770
_cell_angle_gamma                   91.6702

loop_
_atom_site_label
_atom_site_type_symbol
_atom_site_fract_x
_atom_site_fract_y
_atom_site_fract_z
_atom_site_charge
  Ge     Ge        0.052090000000021    0.000000000000000    0.372269999999958  0.0000
  Ge     Ge        0.445718841867543    0.055604993491640    0.368533923145723  0.0000
  Ge     Ge        0.946018990051675    0.055806652399604    0.621004825149025  0.0000
  Ge     Ge        0.550576479762898    0.999330847931198    0.120172445434902  0.0000
  Ge     Ge        0.944028537143637    0.061621630534677    0.120371043990235  0.0000
  Ge     Ge        0.443974605552579    0.063243925747781    0.866107956417701  0.0000
  Ge     Ge        0.172047722053011    0.287399406956761    0.258614255226301  0.0000
  Ge     Ge        0.323759532505373    0.770408064371798    0.254547884537288  0.0000
  Ge     Ge        0.846073797035138    0.368550305824423    0.687088458648069  0.0000
  Ge     Ge        0.639695803298828    0.690979693763080    0.687435504500869  0.0000
  Ge     Ge        0.821921974820812    0.768595637916911    0.688598396791441  0.0000
  Ge     Ge        0.663568007542427    0.290326652177065    0.692202642523584  0.0000
  Ge     Ge        0.141598303939435    0.685756960580879    0.256195645481360  0.0000
  Ge     Ge        0.353890547709032    0.370315545784341    0.250179645766198  0.0000
  Ge     Ge        0.670452281338143    0.287338988378164    0.007895752747524  0.0000
  Ge     Ge        0.822507018715694    0.774406628569349    0.004564670517877  0.0000
  Ge     Ge        0.344220182306634    0.371008154593909    0.933932897294109  0.0000
  Ge     Ge        0.139628980863066    0.691535998901292    0.941665155429851  0.0000
  Ge     Ge        0.321670900872606    0.772209877305852    0.940636415109023  0.0000
  Ge     Ge        0.162344439729299    0.290395373763291    0.943896073655558  0.0000
  Ge     Ge        0.641167230600797    0.686909817844769    0.003016878023615  0.0000
  Ge     Ge        0.851755170564183    0.374328488179785    0.002966572700198  0.0000
  Si     Si        0.545494545099329    0.003727114197521    0.620757422506858  0.0000
  Si     Si        0.044276401947839    0.999662500285905    0.875155908964675  0.0000
  O1     O1        0.129740934558352    0.133422544878796    0.352314346776862  0.0000
  O1     O1        0.367653137675843    0.922683272060485    0.348918199143776  0.0000
  O1     O1        0.909824561548345    0.254620367249472    0.600692723707171  0.0000
  O3     O3        0.575699343488519    0.814768948484691    0.601150018412124  0.0000
  O1     O1        0.872608179294862    0.909962117376473    0.594875217462935  0.0000
  O3     O3        0.613654344043049    0.141963567362050    0.598383922750005  0.0000
  O1     O1        0.076525993754877    0.794323684801806    0.343187922739162  0.0000
  O1     O1        0.421753598360532    0.261245477634741    0.334764906338361  0.0000
  O1     O1        0.023507948453537    0.018263541875796    0.530811450510944  0.0000
  O3     O3        0.473284356559398    0.041497930026384    0.531103053893634  0.0000
  O1     O1        0.974969707731212    0.056203007489741    0.278782390588528  0.0000
  O1     O1        0.521388508966071    0.996918042811203    0.278465083275419  0.0000
  O3     O3        0.972485065335292    0.036496545838353    0.784814033524282  0.0000
  O3     O3        0.520299865922841    0.022044751743571    0.770838338656597  0.0000
  O1     O1        0.628152696929187    0.135370140313410    0.103409420935983  0.0000
  O1     O1        0.866881068329262    0.925371890796773    0.099614502765877  0.0000
  O1     O1        0.405783972708884    0.259988689305089    0.841475001244421  0.0000
  O3     O3        0.077131522535314    0.813310306138010    0.851130181940540  0.0000
  O1     O1        0.371377122221197    0.913482978888221    0.846142600131988  0.0000
  O3     O3        0.110712768239932    0.142811143350206    0.852991234198187  0.0000
  O1     O1        0.573863106977814    0.794237361959435    0.084374642237006  0.0000
  O1     O1        0.919667182271539    0.267361916995386    0.088133187269605  0.0000
  O1     O1        0.475816762271779    0.063761191139439    0.025196662375529  0.0000
  O3     O3        0.019169882379400    0.002295594622071    0.025562868444074  0.0000
  O1     O1        0.155352139787988    0.486779181689170    0.319505367833289  0.0000
  O1     O1        0.342554544968433    0.569487622805886    0.312566317448596  0.0000
  O1     O1        0.834051633369579    0.568017232756050    0.625897324399339  0.0000
  O1     O1        0.647638376327489    0.490113161291477    0.627187664016124  0.0000
  O1     O1        0.268156130811141    0.257825033824589    0.255258373250969  0.0000
  O1     O1        0.227317193448728    0.798009486366925    0.254587182071897  0.0000
  O1     O1        0.759652254141935    0.257439171815902    0.688643874269425  0.0000
  O1     O1        0.725742464251624    0.801408063734230    0.686358211652397  0.0000
  O1     O1        0.134653118184771    0.277676174935679    0.103147445212367  0.0000
  O1     O1        0.356457237235978    0.787558685342159    0.097884352828302  0.0000
  O1     O1        0.878810979618858    0.393447161595104    0.844059455634604  0.0000
  O1     O1        0.610850504698360    0.663358416386357    0.844462876205249  0.0000
  O1     O1        0.853609683533282    0.784739717219654    0.847273988333622  0.0000
  O1     O1        0.634928888591550    0.277099504967720    0.851019539009065  0.0000
  O1     O1        0.109647638599882    0.664122815897598    0.098544004361203  0.0000
  O1     O1        0.379013587823382    0.391680000484497    0.090602964285307  0.0000
  O1     O1        0.654118283854605    0.488018646561228    0.066933874920926  0.0000
  O1     O1        0.840165048233138    0.573465279726858    0.064581770530070  0.0000
  O1     O1        0.331923934107327    0.571855369453513    0.876353591438132  0.0000
  O1     O1        0.147287646462122    0.491302599453033    0.880314190317810  0.0000
  O1     O1        0.766797997530676    0.259107851254419    0.006107932049491  0.0000
  O1     O1        0.725933402571451    0.802549135927946    0.005101662009971  0.0000
  O1     O1        0.258349524856381    0.257956892000861    0.938630142570387  0.0000
  O1     O1        0.225485088866111    0.803188758206319    0.944321378570086  0.0000
