data_c00010.vasp
_audit_creation_method             Generated by GULP
_audit_author_name                 Salvador R. G. Balestra
_symmetry_space_group_name_H-M     'P 1             '
_symmetry_Int_Tables_number        1

loop_
_symmetry_equiv_pos_site_id
_symmetry_equiv_pos_as_xyz
_cell_length_a                       17.6843
_cell_length_b                        7.8681
_cell_length_c                       10.2737
_cell_angle_alpha                   89.5079
_cell_angle_beta                    90.3628
_cell_angle_gamma                   91.5216

loop_
_atom_site_label
_atom_site_type_symbol
_atom_site_fract_x
_atom_site_fract_y
_atom_site_fract_z
_atom_site_charge
  Ge     Ge        0.052090000000021    0.000000000000000    0.372269999999958  0.0000
  Ge     Ge        0.442677525713259    0.054271816517574    0.407532516617008  0.0000
  Ge     Ge        0.947634170745002    0.069122463488681    0.621260655791666  0.0000
  Ge     Ge        0.549104573484312    0.014732377224947    0.658222573211340  0.0000
  Ge     Ge        0.553494149818372    0.008672719320694    0.166485784757329  0.0000
  Ge     Ge        0.949459005731363    0.068912165603047    0.117766533907253  0.0000
  Ge     Ge        0.447588866296989    0.067067187907872    0.914759957868590  0.0000
  Ge     Ge        0.054802027280957    0.013307056942625    0.869307350470124  0.0000
  Ge     Ge        0.174401601505961    0.285404972976189    0.295117786651346  0.0000
  Ge     Ge        0.327788381363094    0.755911492333681    0.297940824170521  0.0000
  Ge     Ge        0.853249639239775    0.379318482516768    0.735584068909845  0.0000
  Ge     Ge        0.645549577996966    0.699297714567156    0.729180950396579  0.0000
  Ge     Ge        0.825755473489538    0.780182754131529    0.734185454830222  0.0000
  Ge     Ge        0.672760751264690    0.298018102583904    0.732661286912710  0.0000
  Ge     Ge        0.145569919256770    0.683991231765228    0.303538590178408  0.0000
  Ge     Ge        0.673123657516841    0.296198550523506    0.048662719627363  0.0000
  Ge     Ge        0.825374492085365    0.782450124738203    0.050062526940779  0.0000
  Ge     Ge        0.346113134500810    0.375243024985006    0.976992847016790  0.0000
  Ge     Ge        0.144780821869797    0.695347699885080    0.990241074746403  0.0000
  Ge     Ge        0.326286674197357    0.774925277867313    0.985245389034912  0.0000
  Ge     Ge        0.645244339785984    0.698897112915821    0.045755141380072  0.0000
  Ge     Ge        0.852665895146470    0.383024852054798    0.052181515848928  0.0000
  Si     Si        0.350305416434424    0.362055358681617    0.288044763309045  0.0000
  Si     Si        0.170518710375645    0.298996711337259    0.985096862313669  0.0000
  O1     O1        0.129424745396107    0.137226263619866    0.389215689424447  0.0000
  O1     O1        0.374398544068654    0.896917736103332    0.397470168530186  0.0000
  O1     O1        0.919463149958177    0.272060258657513    0.649681767854180  0.0000
  O1     O1        0.582145288529543    0.813142981108466    0.638647961653489  0.0000
  O1     O1        0.872846419352514    0.929653630484609    0.642117877602909  0.0000
  O1     O1        0.623299371118109    0.157988778212079    0.636403795035731  0.0000
  O1     O1        0.084081492145643    0.798042484188242    0.395678749297119  0.0000
  O3     O3        0.412353290076291    0.254065328487540    0.363488664357572  0.0000
  O1     O1        0.975866809306858    0.051976362889218    0.461090576540373  0.0000
  O1     O1        0.471156295822340    0.060283916606312    0.568393993713093  0.0000
  O1     O1        0.025658106173386    0.023001033393913    0.210445132244176  0.0000
  O1     O1        0.523638102333249    0.008717809977046    0.325313856795319  0.0000
  O1     O1        0.027383606591446    0.020968533269882    0.708795099382205  0.0000
  O1     O1        0.523101498040541    0.030758150608060    0.820334555656485  0.0000
  O1     O1        0.629030725570968    0.147544654634964    0.145712672499017  0.0000
  O1     O1        0.875216842317226    0.925263204748509    0.142371134315251  0.0000
  O1     O1        0.409109745209196    0.264483532912476    0.889882180873677  0.0000
  O1     O1        0.083338217586729    0.808699723598220    0.897419228050111  0.0000
  O1     O1        0.375033341438681    0.919365492948215    0.892149805403949  0.0000
  O3     O3        0.127019947409000    0.161494236712193    0.897287220524808  0.0000
  O1     O1        0.579277303330088    0.804852213557549    0.131360941723595  0.0000
  O1     O1        0.916466873505289    0.270012186156692    0.141618053807333  0.0000
  O1     O1        0.477084399942614    0.065695921422138    0.074753521670539  0.0000
  O1     O1        0.976202278325138    0.058311573261959    0.956471812735290  0.0000
  O1     O1        0.154251790813051    0.481024863547925    0.358874548109322  0.0000
  O3     O3        0.341226308906823    0.547156535555072    0.350300960280992  0.0000
  O1     O1        0.840794962924440    0.579832728379202    0.673690865720507  0.0000
  O1     O1        0.658147715848201    0.500102612686244    0.671094284121623  0.0000
  O3     O3        0.270812436129688    0.256333174146247    0.296202211056606  0.0000
  O1     O1        0.232547015225565    0.788128741117448    0.301056753870216  0.0000
  O1     O1        0.768302153797942    0.265759537443806    0.731861069022481  0.0000
  O1     O1        0.730367068378929    0.813213686455650    0.731825591140775  0.0000
  O3     O3        0.143067392182343    0.282315324309550    0.134264298115170  0.0000
  O1     O1        0.360652591082463    0.787749708350661    0.142776016971211  0.0000
  O1     O1        0.882987141954933    0.402217677708609    0.893599328731561  0.0000
  O1     O1        0.614984274470955    0.680179688186631    0.887397950689662  0.0000
  O1     O1        0.857644048044188    0.792319300774299    0.892120693322700  0.0000
  O1     O1        0.640614046020327    0.282465404597333    0.890718315694103  0.0000
  O1     O1        0.111600114856018    0.682233900999056    0.145960852969290  0.0000
  O3     O3        0.373874601199930    0.391691395667388    0.139126713256262  0.0000
  O1     O1        0.657751144439816    0.497924707290548    0.106287929682902  0.0000
  O1     O1        0.840081578772459    0.580754880927462    0.112815417468741  0.0000
  O1     O1        0.340334492125669    0.576968932736054    0.919339346769757  0.0000
  O3     O3        0.155473398308623    0.490028132871098    0.933684364665798  0.0000
  O1     O1        0.768681510916338    0.266452237311888    0.048310192338657  0.0000
  O1     O1        0.729895123393545    0.813745886036761    0.049925542440648  0.0000
  O3     O3        0.259503813521829    0.266441004926123    0.977204334415395  0.0000
  O1     O1        0.230755806376761    0.802749673093149    0.988964579268957  0.0000
