data_c00010.vasp
_audit_creation_method             Generated by GULP
_audit_author_name                 Salvador R. G. Balestra
_symmetry_space_group_name_H-M     'P 1             '
_symmetry_Int_Tables_number        1

loop_
_symmetry_equiv_pos_site_id
_symmetry_equiv_pos_as_xyz
_cell_length_a                        9.1273
_cell_length_b                        7.8748
_cell_length_c                       10.2784
_cell_angle_alpha                   91.0243
_cell_angle_beta                   105.6281
_cell_angle_gamma                   87.3204

loop_
_atom_site_label
_atom_site_type_symbol
_atom_site_fract_x
_atom_site_fract_y
_atom_site_fract_z
_atom_site_charge
  Ge     Ge        0.313819999999964    0.296860000000038    0.309830000000034  0.0000
  Ge     Ge        0.680490737173960    0.217439688153728    0.711377233511387  0.0000
  Ge     Ge        0.727329875240601    0.616939054283667    0.728199922544673  0.0000
  Ge     Ge        0.368332975454099    0.691723274356705    0.326966085396012  0.0000
  Ge     Ge        0.316851282615513    0.297625973248475    0.624593587944252  0.0000
  Ge     Ge        0.733653615072980    0.613727657237269    0.414689634814419  0.0000
  Ge     Ge        0.906304222079702    0.930221159653475    0.339213300051907  0.0000
  Ge     Ge        0.127278521446535    0.982406090434679    0.637424991936447  0.0000
  Ge     Ge        0.125849424867293    0.986346961927252    0.150568690994218  0.0000
  Ge     Ge        0.925037413810923    0.925827606551188    0.846598250243275  0.0000
  Si     Si        0.676580141573764    0.221128308925114    0.401908124554140  0.0000
  Si     Si        0.368721896832890    0.687845854313691    0.636704864874759  0.0000
  O1     O1        0.249567208271016    0.302650767320370    0.451886338146088  0.0000
  O3     O3        0.740566373925267    0.208013597645635    0.564014518554836  0.0000
  O1     O1        0.795067994691466    0.612075908140389    0.587211509877345  0.0000
  O3     O3        0.310044041271786    0.688340208197368    0.473974925596603  0.0000
  O1     O1        0.325046639349409    0.496772459939788    0.251838014872345  0.0000
  O1     O1        0.714625865354028    0.417473484761846    0.781553497212134  0.0000
  O3     O3        0.495953518161100    0.201676826839282    0.358550134303326  0.0000
  O1     O1        0.490106448866078    0.187223159366850    0.669138342576252  0.0000
  O3     O3        0.547623542879091    0.719297265111137    0.680941701785398  0.0000
  O1     O1        0.559175781293713    0.718964898268183    0.363280043614242  0.0000
  O1     O1        0.188153861312825    0.188132493041432    0.187091276962780  0.0000
  O1     O1        0.779937936597086    0.078406821436037    0.830633097496867  0.0000
  O1     O1        0.847375126276041    0.732278827721462    0.850825781037870  0.0000
  O1     O1        0.276397778571779    0.851578965087747    0.224520954357731  0.0000
  O3     O3        0.339419547698630    0.502183000780572    0.688356523058155  0.0000
  O3     O3        0.716206027398489    0.405207081404698    0.356401648200840  0.0000
  O1     O1        0.195303468785540    0.181236916902225    0.684678775132416  0.0000
  O3     O3        0.754099328545482    0.071816313294129    0.332823760748605  0.0000
  O1     O1        0.857683210483340    0.724070059376135    0.353431467509333  0.0000
  O3     O3        0.275453974831839    0.831031965061995    0.695880165983476  0.0000
  O1     O1        0.065505600497625    0.978267069821569    0.463800519349405  0.0000
  O1     O1        0.961314340707667    0.945987546022088    0.192542129596158  0.0000
  O1     O1        0.978586887877481    0.938825529089367    0.698136573441686  0.0000
  O1     O1        0.079820705012334    0.959168499939550    0.977510791990532  0.0000
