data_c00007.vasp
_audit_creation_method             Generated by GULP
_audit_author_name                 Salvador R. G. Balestra
_symmetry_space_group_name_H-M     'P 1             '
_symmetry_Int_Tables_number        1

loop_
_symmetry_equiv_pos_site_id
_symmetry_equiv_pos_as_xyz
_cell_length_a                        9.0743
_cell_length_b                        7.8194
_cell_length_c                       10.2275
_cell_angle_alpha                   90.2470
_cell_angle_beta                   104.7309
_cell_angle_gamma                   91.0299

loop_
_atom_site_label
_atom_site_type_symbol
_atom_site_fract_x
_atom_site_fract_y
_atom_site_fract_z
_atom_site_charge
  Ge     Ge        0.313819999999964    0.296860000000038    0.309830000000034  0.0000
  Ge     Ge        0.668471599530383    0.385532382296263    0.715355810057224  0.0000
  Ge     Ge        0.617185197238180    0.782593285861037    0.698535964199901  0.0000
  Ge     Ge        0.265973237757284    0.704465945750447    0.294385281313982  0.0000
  Ge     Ge        0.302164865608879    0.312645014375421    0.624764443354755  0.0000
  Ge     Ge        0.671368250538109    0.385448552314098    0.395137648596340  0.0000
  Ge     Ge        0.623683861638138    0.788031850744730    0.384447746503015  0.0000
  Ge     Ge        0.878216508718827    0.073370035904864    0.382753907701783  0.0000
  Ge     Ge        0.074560161910389    0.014188451517536    0.165986761780727  0.0000
  Ge     Ge        0.857250232895389    0.068086440491883    0.866082862047126  0.0000
  Si     Si        0.257271143710095    0.710993999939469    0.601357867300044  0.0000
  Si     Si        0.077171933959614    0.018724506392518    0.679189406828077  0.0000
  O1     O1        0.246118540600970    0.283830163523572    0.453124639809219  0.0000
  O1     O1        0.720309519626804    0.414322632235022    0.567673992709258  0.0000
  O1     O1        0.686034644954731    0.801351637605295    0.558075051870527  0.0000
  O3     O3        0.200824786042444    0.688349175774418    0.440327715906568  0.0000
  O1     O1        0.292264550960535    0.502339689101396    0.246023595153990  0.0000
  O1     O1        0.653769412898611    0.588301255981063    0.775844505176144  0.0000
  O1     O1        0.505668945627916    0.261958331718295    0.356902462975310  0.0000
  O1     O1        0.493688685497015    0.281125832781399    0.683906106541401  0.0000
  O3     O3        0.421684681207575    0.804158316015497    0.641423589131050  0.0000
  O1     O1        0.432115675577841    0.825910237222603    0.333494393947257  0.0000
  O1     O1        0.220265291898395    0.163082943254962    0.181926642393322  0.0000
  O1     O1        0.805778906516428    0.274320754529713    0.826578798251436  0.0000
  O1     O1        0.698546388924177    0.940630583873995    0.810690266385541  0.0000
  O1     O1        0.140391659431817    0.809858744658049    0.168204211215546  0.0000
  O3     O3        0.265999677253278    0.522873512485083    0.665623688016881  0.0000
  O1     O1        0.645625705128669    0.584078489246271    0.326432696191848  0.0000
  O3     O3        0.206125270000740    0.167203685461325    0.700968745549410  0.0000
  O1     O1        0.807661996926698    0.275318219162496    0.344301568455059  0.0000
  O1     O1        0.731886939272406    0.928456793499569    0.320378738461902  0.0000
  O2     O2        0.140340189824432    0.832844808273019    0.651915893825095  0.0000
  O3     O3        0.933219318239464    0.066228843037790    0.558634549635929  0.0000
  O1     O1        0.028421058379934    0.037306886107786    0.319524023974581  0.0000
  O3     O3        0.015342376640175    0.005079889740995    0.812672575759187  0.0000
  O1     O1        0.918031410091784    0.052111737684646    0.039317684027613  0.0000
