data_c00003.vasp
_audit_creation_method             Generated by GULP
_audit_author_name                 Salvador R. G. Balestra
_symmetry_space_group_name_H-M     'P 1             '
_symmetry_Int_Tables_number        1

loop_
_symmetry_equiv_pos_site_id
_symmetry_equiv_pos_as_xyz
_cell_length_a                        9.0804
_cell_length_b                        7.8257
_cell_length_c                       10.2124
_cell_angle_alpha                   90.9692
_cell_angle_beta                   105.8791
_cell_angle_gamma                   88.0367

loop_
_atom_site_label
_atom_site_type_symbol
_atom_site_fract_x
_atom_site_fract_y
_atom_site_fract_z
_atom_site_charge
  Ge     Ge        0.313819999999964    0.296860000000038    0.309830000000034  0.0000
  Ge     Ge        0.676156471894088    0.223403763004162    0.719042054679486  0.0000
  Ge     Ge        0.731183322473468    0.624157888240175    0.729385291311949  0.0000
  Ge     Ge        0.362107501408923    0.699554754272661    0.322489007440642  0.0000
  Ge     Ge        0.308724518554550    0.304103230419754    0.624800626170334  0.0000
  Ge     Ge        0.678806708318508    0.215187038652737    0.403223368664893  0.0000
  Ge     Ge        0.726347933932566    0.617144955684019    0.408250419241256  0.0000
  Ge     Ge        0.364798467275697    0.706507651252103    0.642434603981893  0.0000
  Ge     Ge        0.930856834909412    0.925279478922210    0.392740422964236  0.0000
  Ge     Ge        0.921184215446431    0.938489686441153    0.888468448977231  0.0000
  Si     Si        0.130715504523419    0.995282632200120    0.694484926617835  0.0000
  Si     Si        0.129519058288506    0.984756794893107    0.188741006103315  0.0000
  O1     O1        0.247868534271842    0.325121797590417    0.451140026331541  0.0000
  O1     O1        0.744099669429581    0.203466311291933    0.577996763516568  0.0000
  O1     O1        0.785573449617187    0.597697787167316    0.582481185813182  0.0000
  O1     O1        0.300734883046053    0.712459000447948    0.467654499898682  0.0000
  O1     O1        0.333955778395773    0.495915636354111    0.252686932622375  0.0000
  O1     O1        0.707983299227007    0.425695148507077    0.787746289495639  0.0000
  O1     O1        0.485639077190301    0.183171550474868    0.357447207116788  0.0000
  O1     O1        0.482094262665639    0.195386252056757    0.669573787710990  0.0000
  O1     O1        0.558094485171454    0.736406321597976    0.692519984235890  0.0000
  O1     O1        0.554863205344073    0.733385481897171    0.366741881637584  0.0000
  O3     O3        0.190830038275935    0.174172278994520    0.186426850873408  0.0000
  O1     O1        0.765373377049329    0.073759212844004    0.836519260979391  0.0000
  O1     O1        0.867843316947968    0.733211165250868    0.846748792619637  0.0000
  O3     O3        0.265152482511280    0.843064083661727    0.199369074515535  0.0000
  O1     O1        0.327035026639950    0.506905351068056    0.693423484704492  0.0000
  O1     O1        0.702120206969677    0.414953536356616    0.343383351818956  0.0000
  O3     O3        0.173877218806034    0.188488873082638    0.672791495884860  0.0000
  O1     O1        0.781675009614292    0.070044092103767    0.335348677470765  0.0000
  O1     O1        0.858716636750505    0.724964707885498    0.353157807222580  0.0000
  O3     O3        0.277365935493598    0.867594291262682    0.713578512166517  0.0000
  O3     O3        0.993333432283514    0.932519987373137    0.569310514853263  0.0000
  O3     O3        0.081581839400299    0.965318841509629    0.329594210940867  0.0000
  O3     O3        0.073019264168183    0.995714434873413    0.829301469637041  0.0000
  O3     O3        0.983966361264040    0.950799744698049    0.064659307959767  0.0000
