data_c00015.vasp
_audit_creation_method             Generated by GULP
_audit_author_name                 Salvador R. G. Balestra
_symmetry_space_group_name_H-M     'P 1             '
_symmetry_Int_Tables_number        1

loop_
_symmetry_equiv_pos_site_id
_symmetry_equiv_pos_as_xyz
_cell_length_a                        9.1390
_cell_length_b                        7.7935
_cell_length_c                       10.3120
_cell_angle_alpha                   87.6983
_cell_angle_beta                   105.9774
_cell_angle_gamma                   91.6804

loop_
_atom_site_label
_atom_site_type_symbol
_atom_site_fract_x
_atom_site_fract_y
_atom_site_fract_z
_atom_site_charge
  Ge     Ge        0.313819999999964    0.296860000000038    0.309830000000034  0.0000
  Ge     Ge        0.678796534869492    0.351215821296935    0.712342858478193  0.0000
  Ge     Ge        0.618960777033202    0.752953587345400    0.708791142593119  0.0000
  Ge     Ge        0.318838066809525    0.263355559396295    0.626370400099253  0.0000
  Ge     Ge        0.675553698707842    0.372474959599699    0.393627504451061  0.0000
  Ge     Ge        0.631854221312112    0.772177379859586    0.396683360049118  0.0000
  Ge     Ge        0.260365889581920    0.668526022059505    0.610032421944870  0.0000
  Ge     Ge        0.072264074511546    0.975844511079492    0.678016494529083  0.0000
  Ge     Ge        0.072332992060198    0.005734764567890    0.187798691604051  0.0000
  Ge     Ge        0.863808072859350    0.029956772990293    0.877444163253055  0.0000
  Si     Si        0.276785449484642    0.693110231085660    0.305183656097538  0.0000
  Si     Si        0.868635052265786    0.063596659267407    0.385423316554447  0.0000
  O1     O1        0.256182342580602    0.257178359755689    0.453284837081067  0.0000
  O1     O1        0.726560762513946    0.395654852566167    0.565088780691820  0.0000
  O1     O1        0.688374743255582    0.779746079962261    0.569550821220371  0.0000
  O3     O3        0.218202761376905    0.652335083782401    0.436674415284164  0.0000
  O3     O3        0.297722264125011    0.509700664099312    0.248773083756500  0.0000
  O1     O1        0.650701778199745    0.545634660749951    0.773166745562481  0.0000
  O1     O1        0.505278794196575    0.260698886439917    0.346213500634111  0.0000
  O1     O1        0.511469618838910    0.231900213662988    0.676198072651554  0.0000
  O1     O1        0.426589060594915    0.785986283815445    0.664879555128017  0.0000
  O3     O3        0.436311827319053    0.799411570252465    0.348788214510523  0.0000
  O1     O1        0.204971789205341    0.167061534648812    0.188967795251276  0.0000
  O1     O1        0.818698894658890    0.238178019265429    0.824064999742613  0.0000
  O1     O1        0.708548989584114    0.896316280285258    0.826963894226882  0.0000
  O3     O3        0.157511393341417    0.808249888259990    0.196337109002868  0.0000
  O1     O1        0.282495544710322    0.463294707340419    0.676151968221949  0.0000
  O1     O1        0.666271912362484    0.580680369344077    0.333216923384211  0.0000
  O1     O1        0.228900810575986    0.108835705316410    0.699729225246424  0.0000
  O3     O3        0.807780503397696    0.255458887886308    0.343209750425170  0.0000
  O3     O3        0.728360968860798    0.930724451465415    0.331047862610794  0.0000
  O1     O1        0.115972909252416    0.770424555298929    0.648284243340183  0.0000
  O3     O3        0.921772103625367    0.051704549183492    0.548531343462851  0.0000
  O3     O3        0.010384597112532    0.021248454940845    0.332065110154435  0.0000
  O1     O1        0.013737967679877    0.965892327955373    0.822141547014414  0.0000
  O1     O1        0.920216160692971    0.022625242543135    0.051092312954920  0.0000
