data_c00019.vasp
_audit_creation_method             Generated by GULP
_audit_author_name                 Salvador R. G. Balestra
_symmetry_space_group_name_H-M     'P 1             '
_symmetry_Int_Tables_number        1

loop_
_symmetry_equiv_pos_site_id
_symmetry_equiv_pos_as_xyz
_cell_length_a                        9.1614
_cell_length_b                        7.8290
_cell_length_c                       10.3050
_cell_angle_alpha                   87.5103
_cell_angle_beta                   105.9362
_cell_angle_gamma                   92.3011

loop_
_atom_site_label
_atom_site_type_symbol
_atom_site_fract_x
_atom_site_fract_y
_atom_site_fract_z
_atom_site_charge
  Ge     Ge        0.313819999999964    0.296860000000038    0.309830000000034  0.0000
  Ge     Ge        0.674139755486114    0.355407323304288    0.706426814546398  0.0000
  Ge     Ge        0.623749233333199    0.754053182865057    0.702001084250928  0.0000
  Ge     Ge        0.672780957262786    0.379923322779317    0.387966119384290  0.0000
  Ge     Ge        0.621427018834343    0.777231328934719    0.386624830452938  0.0000
  Ge     Ge        0.261294087023207    0.676329961667143    0.605351235832650  0.0000
  Ge     Ge        0.869497782605115    0.069398399064134    0.380122321941525  0.0000
  Ge     Ge        0.083109308768378    0.989686459399812    0.678240921940150  0.0000
  Ge     Ge        0.076052217556250    0.004577703687199    0.179361285706558  0.0000
  Ge     Ge        0.868171859686691    0.037667653393259    0.871042681329096  0.0000
  Si     Si        0.267281532716056    0.694215499056593    0.301154768831079  0.0000
  Si     Si        0.317386687388669    0.278245020015620    0.618806295623051  0.0000
  O3     O3        0.256037215220641    0.267933705520723    0.456609761265519  0.0000
  O1     O1        0.728087451122639    0.389540364663909    0.561209832946597  0.0000
  O1     O1        0.687369000688481    0.779422551761240    0.559979218586008  0.0000
  O3     O3        0.201436086207487    0.673568942537386    0.430817787980085  0.0000
  O3     O3        0.290026056147485    0.509547884914994    0.251522618830787  0.0000
  O1     O1        0.657843625315959    0.549911440475382    0.769511440884402  0.0000
  O1     O1        0.503294880840304    0.263136360786136    0.343262498316423  0.0000
  O3     O3        0.497095593231575    0.250160092366277    0.664069942489462  0.0000
  O1     O1        0.431873241753800    0.783797585024442    0.660537511418700  0.0000
  O3     O3        0.427135172497407    0.800414714708130    0.347305329937192  0.0000
  O1     O1        0.210777898232199    0.167207806405259    0.187354960061970  0.0000
  O1     O1        0.807679885583657    0.240479254463024    0.820554436221396  0.0000
  O1     O1        0.717985672517236    0.897591073705589    0.817832909550974  0.0000
  O3     O3        0.155177538370935    0.805846863214705    0.184265410703198  0.0000
  O3     O3        0.281482107652633    0.464555287171829    0.662742855809990  0.0000
  O1     O1        0.654760051201771    0.584999090856385    0.325417717859488  0.0000
  O3     O3        0.235531193512205    0.131336374223672    0.688218582300854  0.0000
  O1     O1        0.805249742247975    0.273007076207227    0.336411514834608  0.0000
  O1     O1        0.714400575500925    0.933506426955550    0.319459315011255  0.0000
  O1     O1        0.130453594000351    0.783064642025227    0.658217008479214  0.0000
  O1     O1        0.926301939290380    0.050175175340675    0.554147392117677  0.0000
  O1     O1        0.019683490780214    0.021286866689098    0.324777663484977  0.0000
  O1     O1        0.027896182343350    0.990360675758229    0.824756139483657  0.0000
  O1     O1        0.922287416942559    0.028345593198971    0.045432230559472  0.0000
