data_c00002.vasp
_audit_creation_method             Generated by GULP
_audit_author_name                 Salvador R. G. Balestra
_symmetry_space_group_name_H-M     'P 1             '
_symmetry_Int_Tables_number        1

loop_
_symmetry_equiv_pos_site_id
_symmetry_equiv_pos_as_xyz
_cell_length_a                        9.0634
_cell_length_b                        7.8087
_cell_length_c                       10.3963
_cell_angle_alpha                   88.5020
_cell_angle_beta                   106.9444
_cell_angle_gamma                   92.2854

loop_
_atom_site_label
_atom_site_type_symbol
_atom_site_fract_x
_atom_site_fract_y
_atom_site_fract_z
_atom_site_charge
  Ge     Ge        0.313819999999964    0.296860000000038    0.309830000000034  0.0000
  Ge     Ge        0.676861687712973    0.368777992783562    0.714246045249421  0.0000
  Ge     Ge        0.630388413881773    0.770391484347432    0.702127959187430  0.0000
  Ge     Ge        0.248873960900757    0.697251521101959    0.300704891401175  0.0000
  Ge     Ge        0.306569944066504    0.286384321742959    0.619519355833501  0.0000
  Ge     Ge        0.679683298747240    0.391781818121137    0.403659005400006  0.0000
  Ge     Ge        0.614371892065146    0.791144456263255    0.385380810538200  0.0000
  Ge     Ge        0.260831874354807    0.689230054101071    0.616537136170711  0.0000
  Ge     Ge        0.860856747091981    0.080189483627481    0.337440501679627  0.0000
  Ge     Ge        0.068054711845299    0.015575378412055    0.137704953747828  0.0000
  Si     Si        0.067767622461572    0.994502854887118    0.636185982022369  0.0000
  Si     Si        0.872075697821063    0.055014179699821    0.832609428769926  0.0000
  O1     O1        0.243049070100442    0.274610536599922    0.446850576672940  0.0000
  O1     O1        0.738708102070403    0.408391719230970    0.575477434962622  0.0000
  O1     O1        0.685282124883469    0.792738825266915    0.557916535895042  0.0000
  O1     O1        0.196022087763979    0.666279793959671    0.445306985019364  0.0000
  O1     O1        0.276973120617248    0.501079334739084    0.243671556464228  0.0000
  O1     O1        0.659359576145129    0.567202458179154    0.773158255237548  0.0000
  O1     O1        0.509011883123154    0.271785697217975    0.361254243307798  0.0000
  O1     O1        0.501963528641258    0.257462645161812    0.669213435371713  0.0000
  O1     O1        0.435257518485759    0.800608862191211    0.659646032639815  0.0000
  O1     O1        0.419196085411417    0.817672960804605    0.339653998450260  0.0000
  O1     O1        0.228638829549913    0.147072293321332    0.192464982962751  0.0000
  O3     O3        0.808254055394710    0.244109232064612    0.829531528918811  0.0000
  O3     O3        0.732537950128439    0.916638647300548    0.819937883189675  0.0000
  O1     O1        0.109708512072700    0.807070257528621    0.184981808650297  0.0000
  O1     O1        0.278615948517057    0.483737893785680    0.678613580769099  0.0000
  O1     O1        0.650005641961562    0.592273798819790    0.333151998231805  0.0000
  O3     O3        0.207221221723846    0.133465361152203    0.687112378855433  0.0000
  O1     O1        0.817729932289585    0.287914813135934    0.357063566391126  0.0000
  O1     O1        0.699316873241393    0.948800085504326    0.312437374123506  0.0000
  O3     O3        0.132696798937187    0.805185151200818    0.672742704909185  0.0000
  O3     O3        0.003781225347792    0.006059764082837    0.474649023514349  0.0000
  O1     O1        0.923418354309501    0.082125462042790    0.197490245326411  0.0000
  O2     O2        0.931253083558884    0.030881222703648    0.700621293767414  0.0000
  O3     O3        0.010837619974527    0.024536233832021    0.963822395468354  0.0000
