data_c00012.vasp
_audit_creation_method             Generated by GULP
_audit_author_name                 Salvador R. G. Balestra
_symmetry_space_group_name_H-M     'P 1             '
_symmetry_Int_Tables_number        1

loop_
_symmetry_equiv_pos_site_id
_symmetry_equiv_pos_as_xyz
_cell_length_a                        9.1848
_cell_length_b                        7.7810
_cell_length_c                       10.3294
_cell_angle_alpha                   86.8162
_cell_angle_beta                   107.7108
_cell_angle_gamma                   91.9978

loop_
_atom_site_label
_atom_site_type_symbol
_atom_site_fract_x
_atom_site_fract_y
_atom_site_fract_z
_atom_site_charge
  Ge     Ge        0.313819999999964    0.296860000000038    0.309830000000034  0.0000
  Ge     Ge        0.689108479552240    0.344435220511135    0.712470311773644  0.0000
  Ge     Ge        0.639453777347261    0.751419699998231    0.705919013466662  0.0000
  Ge     Ge        0.325122170624828    0.260948255270969    0.624091744396468  0.0000
  Ge     Ge        0.679647964615475    0.376541573253797    0.396657507311545  0.0000
  Ge     Ge        0.615392344155025    0.778940246470200    0.382818945287430  0.0000
  Ge     Ge        0.281228923047030    0.663977135211865    0.627037437455206  0.0000
  Ge     Ge        0.856543904101501    0.065976179229399    0.326274051602802  0.0000
  Ge     Ge        0.074500946574858    0.971417919208209    0.635527395064545  0.0000
  Ge     Ge        0.076158808170304    0.008215089105745    0.144437692024533  0.0000
  Si     Si        0.263398971153080    0.690862998861778    0.311211213861559  0.0000
  Si     Si        0.881259229056620    0.027470382011549    0.838215982433018  0.0000
  O1     O1        0.251307965520328    0.252855621499210    0.449125603205342  0.0000
  O1     O1        0.748204174860864    0.380627061869409    0.571119673691060  0.0000
  O1     O1        0.687169603820371    0.779636395413493    0.557439894559830  0.0000
  O3     O3        0.230134694861228    0.642236573560783    0.452272687637526  0.0000
  O3     O3        0.282118584381610    0.510574684499783    0.249604218805292  0.0000
  O1     O1        0.669283670188606    0.540886816431158    0.769962139335304  0.0000
  O1     O1        0.506670890319457    0.266613956423264    0.353617074742379  0.0000
  O1     O1        0.518064281820179    0.230301334173422    0.665745708805570  0.0000
  O1     O1        0.447806298327384    0.785146606231799    0.673990304413287  0.0000
  O3     O3        0.419536063473859    0.804364392347113    0.338966467764814  0.0000
  O1     O1        0.218417201811901    0.160842064025260    0.185949340842005  0.0000
  O3     O3        0.818663778478111    0.218407597637139    0.834889937368855  0.0000
  O3     O3        0.745248456352534    0.887230498480091    0.827784172371880  0.0000
  O3     O3        0.129155451637102    0.803255208491944    0.211894186187175  0.0000
  O1     O1        0.304140707949435    0.456077524815531    0.688397205204323  0.0000
  O1     O1        0.655170844020260    0.584261204096133    0.331136482244911  0.0000
  O1     O1        0.226622328309354    0.111267798702125    0.692777908647777  0.0000
  O1     O1        0.811246543404833    0.274178509431852    0.343641122762676  0.0000
  O1     O1        0.693324838011494    0.941569953507374    0.307624253390802  0.0000
  O1     O1        0.144189689368006    0.765544476781751    0.672665820872363  0.0000
  O1     O1        0.002716067407933    0.989544875534597    0.461355799867650  0.0000
  O1     O1        0.917946434973551    0.064406505417312    0.185472201013005  0.0000
  O3     O3        0.930039964076379    0.008414307238135    0.701784926718939  0.0000
  O3     O3        0.023872924528563    0.992449633568487    0.968857265113016  0.0000
