data_c00013.vasp
_audit_creation_method             Generated by GULP
_audit_author_name                 Salvador R. G. Balestra
_symmetry_space_group_name_H-M     'P 1             '
_symmetry_Int_Tables_number        1

loop_
_symmetry_equiv_pos_site_id
_symmetry_equiv_pos_as_xyz
_cell_length_a                        9.1787
_cell_length_b                        7.8005
_cell_length_c                       10.2037
_cell_angle_alpha                   87.5636
_cell_angle_beta                   106.6582
_cell_angle_gamma                   91.7421

loop_
_atom_site_label
_atom_site_type_symbol
_atom_site_fract_x
_atom_site_fract_y
_atom_site_fract_z
_atom_site_charge
  Ge     Ge        0.313819999999964    0.296860000000038    0.309830000000034  0.0000
  Ge     Ge        0.685977423466814    0.344339977194172    0.715986422430271  0.0000
  Ge     Ge        0.635769953910767    0.753790490949730    0.707928814313120  0.0000
  Ge     Ge        0.326603509166323    0.261062369096197    0.628845659294868  0.0000
  Ge     Ge        0.682417745746399    0.363683380246269    0.396395924423396  0.0000
  Ge     Ge        0.628191642784389    0.768405488118225    0.387253498262430  0.0000
  Ge     Ge        0.280749239841242    0.664575863534361    0.627099105676597  0.0000
  Ge     Ge        0.867826257658192    0.054272270146943    0.327142945321818  0.0000
  Ge     Ge        0.076678153505169    0.972204156517448    0.639109990773371  0.0000
  Ge     Ge        0.881356132959507    0.029835083961951    0.852695761505266  0.0000
  Si     Si        0.272174300011177    0.690309788215667    0.312646809104684  0.0000
  Si     Si        0.090221526744576    0.004306644968114    0.149897030618992  0.0000
  O1     O1        0.254273665334121    0.258981901141492    0.452549148630162  0.0000
  O1     O1        0.747825288168351    0.364197368063775    0.572173143058549  0.0000
  O1     O1        0.695657503894672    0.780903019467883    0.562526616704968  0.0000
  O3     O3        0.227671750845259    0.643544006576235    0.450217845480746  0.0000
  O3     O3        0.281256068304480    0.508557699031729    0.246250252261154  0.0000
  O1     O1        0.657724697002764    0.542014456564659    0.766289766555690  0.0000
  O1     O1        0.505320568059889    0.264728443932987    0.348216236580793  0.0000
  O1     O1        0.517753038843326    0.225205315391133    0.670547060822468  0.0000
  O1     O1        0.444409174305904    0.789383980996136    0.669361158420349  0.0000
  O3     O3        0.433226792033287    0.790614240586933    0.346111479422911  0.0000
  O3     O3        0.216118969106218    0.154011420578522    0.189150727462252  0.0000
  O1     O1        0.812418590067277    0.232174371587700    0.845788961867503  0.0000
  O1     O1        0.736847617603745    0.879914959544706    0.836996298263175  0.0000
  O2     O2        0.148991492424192    0.817908772923008    0.214916799961317  0.0000
  O1     O1        0.305837378913732    0.459442077935769    0.691070536503520  0.0000
  O1     O1        0.667797060054242    0.572759036133476    0.336354486378107  0.0000
  O1     O1        0.226511965377347    0.114354126805918    0.697794510523169  0.0000
  O1     O1        0.812200846953716    0.260028561553574    0.338870488399999  0.0000
  O1     O1        0.707503019543990    0.926337513957149    0.308298450953161  0.0000
  O1     O1        0.145038186594123    0.766650679905978    0.676738466687704  0.0000
  O1     O1        0.013073510649834    0.988391384482957    0.463061496499856  0.0000
  O3     O3        0.935740085915669    0.049313854230080    0.185115292010348  0.0000
  O1     O1        0.931232562259349    0.010053421951027    0.702876733659065  0.0000
  O3     O3        0.040967369114198    0.990364581226584    0.986152129101134  0.0000
