data_c00006.vasp
_audit_creation_method             Generated by GULP
_audit_author_name                 Salvador R. G. Balestra
_symmetry_space_group_name_H-M     'P 1             '
_symmetry_Int_Tables_number        1

loop_
_symmetry_equiv_pos_site_id
_symmetry_equiv_pos_as_xyz
_cell_length_a                        9.1721
_cell_length_b                        7.7868
_cell_length_c                       10.2775
_cell_angle_alpha                   88.9785
_cell_angle_beta                   106.6696
_cell_angle_gamma                   91.6999

loop_
_atom_site_label
_atom_site_type_symbol
_atom_site_fract_x
_atom_site_fract_y
_atom_site_fract_z
_atom_site_charge
  Ge     Ge        0.313819999999964    0.296860000000038    0.309830000000034  0.0000
  Ge     Ge        0.685929237197088    0.372825980080614    0.716689758989539  0.0000
  Ge     Ge        0.631815787285298    0.777329698137614    0.699835008458884  0.0000
  Ge     Ge        0.260635145088431    0.701177246932227    0.302942390940665  0.0000
  Ge     Ge        0.323685636365932    0.292635097195161    0.627054120346045  0.0000
  Ge     Ge        0.678614998573297    0.378222022348039    0.397612851321033  0.0000
  Ge     Ge        0.621178106805124    0.785325398625445    0.380390220923452  0.0000
  Ge     Ge        0.867037311449624    0.069288993940724    0.327227427473110  0.0000
  Ge     Ge        0.082280746839984    0.994544425690098    0.634000604590474  0.0000
  Ge     Ge        0.879424524949391    0.055464198713866    0.843086974476539  0.0000
  Si     Si        0.279880919842940    0.688353296449421    0.617061286300981  0.0000
  Si     Si        0.078620630010460    0.012897156416073    0.143347425435375  0.0000
  O1     O1        0.255096195286077    0.272892245663352    0.453433383796144  0.0000
  O1     O1        0.742735041075544    0.388422995000461    0.571451783348954  0.0000
  O1     O1        0.688803100938047    0.799848914360344    0.554420058804108  0.0000
  O3     O3        0.220011559218235    0.661644334378152    0.454894445111390  0.0000
  O1     O1        0.274692828366606    0.500461804911342    0.241685805231371  0.0000
  O1     O1        0.668273852891135    0.574489003713330    0.769544544014833  0.0000
  O1     O1        0.506094737519706    0.267249629162576    0.352013583671530  0.0000
  O1     O1        0.515080638733020    0.257135207090756    0.676804921427310  0.0000
  O3     O3        0.436389724548292    0.801702117227182    0.649305757492042  0.0000
  O1     O1        0.428497406285973    0.815844009402139    0.329104064279398  0.0000
  O3     O3        0.221805417232093    0.141857727469792    0.195323881109443  0.0000
  O1     O1        0.818795681705228    0.261366850276944    0.838298633099106  0.0000
  O1     O1        0.722967263278727    0.919196502833454    0.822307880211875  0.0000
  O3     O3        0.117920938263811    0.819599333753607    0.197020664815987  0.0000
  O3     O3        0.306495528378471    0.500004868928547    0.682648579298595  0.0000
  O1     O1        0.652184783656844    0.581944958870254    0.332019424354638  0.0000
  O1     O1        0.219241894332993    0.152624897155570    0.695686009511884  0.0000
  O1     O1        0.812595329111910    0.274596115000263    0.344760481977006  0.0000
  O1     O1        0.710828446345917    0.934455946595514    0.304661881039341  0.0000
  O3     O3        0.161855391154384    0.792451403526342    0.670994217821270  0.0000
  O1     O1        0.015274027281011    0.005318362597020    0.459835260212340  0.0000
  O3     O3        0.931614542212765    0.073865357928019    0.184023549296656  0.0000
  O1     O1        0.934845526607788    0.015979495053640    0.699466805624618  0.0000
  O3     O3        0.031727310813144    0.011776029467376    0.980062063315040  0.0000
