data_c00004.vasp
_audit_creation_method             Generated by GULP
_audit_author_name                 Salvador R. G. Balestra
_symmetry_space_group_name_H-M     'P 1             '
_symmetry_Int_Tables_number        1

loop_
_symmetry_equiv_pos_site_id
_symmetry_equiv_pos_as_xyz
_cell_length_a                        9.0359
_cell_length_b                        7.8204
_cell_length_c                       10.2821
_cell_angle_alpha                   90.6609
_cell_angle_beta                   104.4629
_cell_angle_gamma                   88.0533

loop_
_atom_site_label
_atom_site_type_symbol
_atom_site_fract_x
_atom_site_fract_y
_atom_site_fract_z
_atom_site_charge
  Ge     Ge        0.313819999999964    0.296860000000038    0.309830000000034  0.0000
  Ge     Ge        0.663727704511038    0.222641699501245    0.717023625074427  0.0000
  Ge     Ge        0.711321122784170    0.625502727598080    0.728579655079651  0.0000
  Ge     Ge        0.368303805645495    0.696542517523193    0.319584910852471  0.0000
  Ge     Ge        0.300594324647785    0.303269201049758    0.624270234005303  0.0000
  Ge     Ge        0.678262721553627    0.211778511735115    0.402876240578436  0.0000
  Ge     Ge        0.733397862478653    0.615205673050576    0.418394735125269  0.0000
  Ge     Ge        0.346618307256571    0.705849786645033    0.629425851470914  0.0000
  Ge     Ge        0.127413543013406    0.982879279259401    0.154123973523025  0.0000
  Ge     Ge        0.909482052244100    0.937324250279457    0.852104326092369  0.0000
  Si     Si        0.914371409594122    0.922692100446339    0.350300572757985  0.0000
  Si     Si        0.104143477960009    0.995827748311672    0.640698740304498  0.0000
  O1     O1        0.252490472553810    0.327871323401721    0.453305070607537  0.0000
  O1     O1        0.731351695801893    0.205281369889145    0.574816039027748  0.0000
  O1     O1        0.783659808922243    0.598733115015153    0.589730117788087  0.0000
  O1     O1        0.293268520938935    0.714200252597513    0.457215869100090  0.0000
  O1     O1        0.340334697285246    0.494585306036857    0.250992000057665  0.0000
  O1     O1        0.683390382031142    0.427216811117571    0.782827467343537  0.0000
  O1     O1        0.485234023857052    0.182400815497397    0.348925874027540  0.0000
  O1     O1        0.471031561856019    0.188517632869893    0.671031353618228  0.0000
  O1     O1        0.539182440022193    0.739326420168637    0.681566999000973  0.0000
  O1     O1        0.561187440890639    0.725618106832668    0.370439702468842  0.0000
  O1     O1        0.179853986595626    0.188312941226383    0.194268122903158  0.0000
  O1     O1        0.762047809616836    0.086103824667229    0.839155721857509  0.0000
  O1     O1        0.836080406609918    0.738054530165123    0.849976693338437  0.0000
  O1     O1        0.282130276602277    0.846164566026996    0.202994182342822  0.0000
  O1     O1        0.314244158403564    0.507023076160721    0.687711027449678  0.0000
  O1     O1        0.718601273374849    0.411730217872393    0.352912736374475  0.0000
  O3     O3        0.165108600813513    0.186303707424057    0.674741234530018  0.0000
  O3     O3        0.768867877831475    0.051549246390511    0.332568497759445  0.0000
  O3     O3        0.870327120547492    0.728930869156427    0.368638727254952  0.0000
  O3     O3        0.242757879125992    0.859115562994294    0.693863523571577  0.0000
  O2     O2        0.048839200811345    0.982531987100488    0.477401548993748  0.0000
  O3     O3        0.975967737600751    0.926220160675594    0.217791799215691  0.0000
  O3     O3        0.964875465819464    0.959415691922513    0.702397743416645  0.0000
  O1     O1        0.062013800723208    0.970022962941463    0.982505060188890  0.0000
