data_c00014.vasp
_audit_creation_method             Generated by GULP
_audit_author_name                 Salvador R. G. Balestra
_symmetry_space_group_name_H-M     'P 1             '
_symmetry_Int_Tables_number        1

loop_
_symmetry_equiv_pos_site_id
_symmetry_equiv_pos_as_xyz
_cell_length_a                        9.2949
_cell_length_b                        7.7798
_cell_length_c                       10.1638
_cell_angle_alpha                   84.9820
_cell_angle_beta                   107.1358
_cell_angle_gamma                   91.4844

loop_
_atom_site_label
_atom_site_type_symbol
_atom_site_fract_x
_atom_site_fract_y
_atom_site_fract_z
_atom_site_charge
  Ge     Ge        0.313819999999964    0.296860000000038    0.309830000000034  0.0000
  Ge     Ge        0.682791339085537    0.297030990829514    0.717548840838191  0.0000
  Ge     Ge        0.637524473485955    0.711725334974603    0.727788725557060  0.0000
  Ge     Ge        0.319639324221665    0.234743548915838    0.629135865448547  0.0000
  Ge     Ge        0.680406739405217    0.364871796027426    0.398572797142755  0.0000
  Ge     Ge        0.622160259189826    0.774692671215706    0.394937238837405  0.0000
  Ge     Ge        0.295507787588076    0.634128209094104    0.644625962773714  0.0000
  Ge     Ge        0.862920849436965    0.064593033165428    0.332310008805677  0.0000
  Ge     Ge        0.090515226084262    0.999717229728435    0.164153789356805  0.0000
  Ge     Ge        0.898637970432753    0.976173322918389    0.850698499559349  0.0000
  Si     Si        0.286735724288630    0.683805916110643    0.323344910131757  0.0000
  Si     Si        0.084012979463710    0.944912745285105    0.631854430490982  0.0000
  O1     O1        0.253262547813881    0.239407832326564    0.451602813509271  0.0000
  O1     O1        0.745213234786018    0.326880722750156    0.574792927495918  0.0000
  O1     O1        0.663201291293876    0.780491607630885    0.570275958587638  0.0000
  O3     O3        0.323718981751121    0.609751118936655    0.484063315173872  0.0000
  O3     O3        0.268847361413578    0.510720598097567    0.244618664830761  0.0000
  O1     O1        0.661143622157510    0.493247320338520    0.770948368369462  0.0000
  O1     O1        0.503986487968359    0.273203382700774    0.346133357419290  0.0000
  O1     O1        0.509446546919550    0.194460503662430    0.677154860645456  0.0000
  O1     O1        0.454349424082975    0.741508042529633    0.728258909727284  0.0000
  O3     O3        0.430426995356943    0.797740753248793    0.312424696558304  0.0000
  O1     O1        0.219783404567927    0.162266991821487    0.187517115766981  0.0000
  O1     O1        0.814386507683201    0.172918610359294    0.839240632249846  0.0000
  O1     O1        0.763136991046014    0.820855960234826    0.849538559094784  0.0000
  O3     O3        0.145142595838539    0.808338015113132    0.268993235692149  0.0000
  O1     O1        0.283228988067004    0.419973265733527    0.696621007163442  0.0000
  O1     O1        0.675372538537197    0.581520079806546    0.353838246342044  0.0000
  O3     O3        0.224927192764475    0.067721119920434    0.693610151756832  0.0000
  O1     O1        0.807229093550840    0.272504670198056    0.334096407821556  0.0000
  O1     O1        0.706995220942650    0.940063547806046    0.326158487537290  0.0000
  O3     O3        0.139941837260381    0.746068839125878    0.646934649092258  0.0000
  O3     O3        0.015332131866584    0.998775814605843    0.469914188689921  0.0000
  O1     O1        0.924564527704218    0.057160120011214    0.190150197404469  0.0000
  O3     O3        0.955701070753813    0.955061053325691    0.704892905051478  0.0000
  O1     O1        0.048523504707664    0.951477197886349    0.994770023190598  0.0000
