data_c00016.vasp
_audit_creation_method             Generated by GULP
_audit_author_name                 Salvador R. G. Balestra
_symmetry_space_group_name_H-M     'P 1             '
_symmetry_Int_Tables_number        1

loop_
_symmetry_equiv_pos_site_id
_symmetry_equiv_pos_as_xyz
_cell_length_a                        9.3286
_cell_length_b                        7.8358
_cell_length_c                       10.2107
_cell_angle_alpha                   83.9670
_cell_angle_beta                   108.7478
_cell_angle_gamma                   91.4524

loop_
_atom_site_label
_atom_site_type_symbol
_atom_site_fract_x
_atom_site_fract_y
_atom_site_fract_z
_atom_site_charge
  Ge     Ge        0.313819999999964    0.296860000000038    0.309830000000034  0.0000
  Ge     Ge        0.712176008530546    0.278191404738787    0.716258698886405  0.0000
  Ge     Ge        0.660675858713375    0.693008651431025    0.724122919212521  0.0000
  Ge     Ge        0.351158153295043    0.225084406468405    0.645272894442239  0.0000
  Ge     Ge        0.677787699059365    0.353955253121383    0.390969141686887  0.0000
  Ge     Ge        0.630008617084387    0.760598423085030    0.401339348750690  0.0000
  Ge     Ge        0.858101307199105    0.056991387278227    0.328629516816871  0.0000
  Ge     Ge        0.111149546212326    0.929257374598354    0.635582696904353  0.0000
  Ge     Ge        0.091418492123742    0.993437990220749    0.173368504014622  0.0000
  Ge     Ge        0.920247147211156    0.948575625233203    0.855897974484555  0.0000
  Si     Si        0.294793028176761    0.676240170500035    0.331874240510583  0.0000
  Si     Si        0.325203512824600    0.612484589349087    0.645481294683241  0.0000
  O1     O1        0.315200570076038    0.206314034751426    0.470916902036393  0.0000
  O1     O1        0.711200247033579    0.243626149091988    0.552734690396617  0.0000
  O1     O1        0.651726810802676    0.806287460098575    0.567091530447747  0.0000
  O2     O2        0.366862095948630    0.612089616699866    0.499538240820654  0.0000
  O3     O3        0.232207081492558    0.502829842940501    0.265167272592536  0.0000
  O1     O1        0.735936569730379    0.492073634072002    0.737339863937512  0.0000
  O1     O1        0.491348975364490    0.324289583742673    0.297569119305083  0.0000
  O1     O1        0.540852511414366    0.210477083234440    0.732349521270059  0.0000
  O3     O3        0.482948279079019    0.674169332952407    0.748030707399158  0.0000
  O3     O3        0.441140644002722    0.754077806255577    0.296730196563336  0.0000
  O1     O1        0.209449758865022    0.166117311952880    0.191628897042254  0.0000
  O1     O1        0.857885100875407    0.158256995617578    0.831380470393123  0.0000
  O1     O1        0.771649654003446    0.811043578371894    0.849530646887872  0.0000
  O3     O3        0.168248321615390    0.820210081747228    0.297280064946589  0.0000
  O3     O3        0.286498936814191    0.416676919553076    0.680268496537917  0.0000
  O1     O1        0.715652221997123    0.567534766991420    0.405479153015576  0.0000
  O1     O1        0.255493416715078    0.064360810074083    0.707930156418085  0.0000
  O1     O1        0.795398028529220    0.263889650348880    0.318522741602861  0.0000
  O1     O1        0.710348937084952    0.921811502637235    0.323474029653414  0.0000
  O3     O3        0.183975513383885    0.728145431910639    0.631818554727747  0.0000
  O1     O1        0.017544291732856    0.015950567965073    0.470286243308419  0.0000
  O1     O1        0.920553783584216    0.042669039609730    0.188982784024642  0.0000
  O1     O1        0.988537014623570    0.894802383914578    0.727443614133193  0.0000
  O1     O1        0.060687501122692    0.924426562403611    0.012836074458749  0.0000
