data_c00022.vasp
_audit_creation_method             Generated by GULP
_audit_author_name                 Salvador R. G. Balestra
_symmetry_space_group_name_H-M     'P 1             '
_symmetry_Int_Tables_number        1

loop_
_symmetry_equiv_pos_site_id
_symmetry_equiv_pos_as_xyz
_cell_length_a                        9.2446
_cell_length_b                        7.8048
_cell_length_c                       10.2673
_cell_angle_alpha                   92.0959
_cell_angle_beta                   107.3154
_cell_angle_gamma                   86.9129

loop_
_atom_site_label
_atom_site_type_symbol
_atom_site_fract_x
_atom_site_fract_y
_atom_site_fract_z
_atom_site_charge
  Ge     Ge        0.313819999999964    0.296860000000038    0.309830000000034  0.0000
  Ge     Ge        0.373939621413645    0.699431307252932    0.312231596029707  0.0000
  Ge     Ge        0.334773527151796    0.320660578788550    0.629704719703307  0.0000
  Ge     Ge        0.675884059388569    0.213381981851890    0.395007311879284  0.0000
  Ge     Ge        0.731258792123851    0.608892781767347    0.397683604783690  0.0000
  Ge     Ge        0.392384706447403    0.727235477053903    0.632855993811649  0.0000
  Ge     Ge        0.927763995108915    0.921562850307208    0.395127618238399  0.0000
  Ge     Ge        0.152550485232766    0.020130141881636    0.698760334549776  0.0000
  Ge     Ge        0.120952163516434    0.981594254402232    0.181186789604811  0.0000
  Ge     Ge        0.923559957764963    0.954159670926070    0.869211316137249  0.0000
  Si     Si        0.687867276672699    0.250765522869029    0.710135556290505  0.0000
  Si     Si        0.736978767905700    0.641607247420396    0.711155986241612  0.0000
  O1     O1        0.310164659531926    0.236484694171926    0.468456666018729  0.0000
  O3     O3        0.673917107062054    0.175463097611002    0.559789995702167  0.0000
  O3     O3        0.721141514901705    0.683843050711491    0.556165547785773  0.0000
  O1     O1        0.388156460898247    0.784949517149569    0.472595000952228  0.0000
  O1     O1        0.277955027435867    0.512602311998160    0.293667326113622  0.0000
  O2     O2        0.768714159333830    0.435016640606379    0.729715297138943  0.0000
  O1     O1        0.493116015035941    0.246093279096312    0.296227483196759  0.0000
  O3     O3        0.522195658580906    0.281011136235549    0.727761879490505  0.0000
  O3     O3        0.577537715049114    0.696535680546460    0.736815903159016  0.0000
  O1     O1        0.550355239641219    0.652718011440837    0.293013532614391  0.0000
  O1     O1        0.181181369710816    0.186955784379482    0.188238898999281  0.0000
  O3     O3        0.784549240257370    0.114971146444320    0.817685889603003  0.0000
  O3     O3        0.869290018538222    0.749129958705845    0.810342279443164  0.0000
  O1     O1        0.274386555050752    0.841533660670320    0.191834879788597  0.0000
  O1     O1        0.300234026160690    0.538672462727623    0.622624184703608  0.0000
  O1     O1        0.774746641944905    0.394312128457357    0.394956769251082  0.0000
  O1     O1        0.210579614374135    0.225455411737047    0.695730986480608  0.0000
  O1     O1        0.763596725220442    0.046802157016737    0.332892178815381  0.0000
  O1     O1        0.871527486214343    0.713680551091021    0.362785387943297  0.0000
  O1     O1        0.307209513706947    0.885213915106665    0.706891098613157  0.0000
  O1     O1        0.995091658774464    0.972813755162771    0.566597864692201  0.0000
  O1     O1        0.070076954279931    0.948187866396219    0.327384990337467  0.0000
  O1     O1        0.089355541765666    0.000148523906381    0.839101541993400  0.0000
  O1     O1        0.967633156510938    0.948047143204771    0.044091799691803  0.0000
