data_c00001.vasp
_audit_creation_method             Generated by GULP
_audit_author_name                 Salvador R. G. Balestra
_symmetry_space_group_name_H-M     'P 1             '
_symmetry_Int_Tables_number        1

loop_
_symmetry_equiv_pos_site_id
_symmetry_equiv_pos_as_xyz
_cell_length_a                        9.1359
_cell_length_b                        7.8072
_cell_length_c                       10.2753
_cell_angle_alpha                   88.6093
_cell_angle_beta                   107.6238
_cell_angle_gamma                   92.2266

loop_
_atom_site_label
_atom_site_type_symbol
_atom_site_fract_x
_atom_site_fract_y
_atom_site_fract_z
_atom_site_charge
  Ge     Ge        0.313819999999964    0.296860000000038    0.309830000000034  0.0000
  Ge     Ge        0.699667250226381    0.373184293634738    0.710353879907380  0.0000
  Ge     Ge        0.642324151900683    0.775371632245543    0.702295813783606  0.0000
  Ge     Ge        0.263398338739435    0.701690511813944    0.296193546204967  0.0000
  Ge     Ge        0.332062099786109    0.288781862340719    0.629972015356138  0.0000
  Ge     Ge        0.678217045622867    0.385612378488675    0.389428479679096  0.0000
  Ge     Ge        0.628424903518543    0.787993231358308    0.383962905919129  0.0000
  Ge     Ge        0.273380910438351    0.691780147642597    0.613688708001999  0.0000
  Ge     Ge        0.875994028470012    0.079046480838909    0.365978884470881  0.0000
  Ge     Ge        0.087723820651717    0.002249712809383    0.679910196048647  0.0000
  Si     Si        0.077873979938086    0.014211049162584    0.168510969638142  0.0000
  Si     Si        0.879514685915603    0.058741776426486    0.869358327953730  0.0000
  O1     O1        0.256348992297112    0.278028793412477    0.454455562906491  0.0000
  O1     O1        0.750570361729578    0.404097684461965    0.564371084078054  0.0000
  O1     O1        0.702820426756622    0.796904975761596    0.559602367897193  0.0000
  O1     O1        0.204158854575532    0.676755462162879    0.438681677956943  0.0000
  O1     O1        0.281914701734127    0.501931570638076    0.241001645635757  0.0000
  O1     O1        0.682455582183908    0.572439928475865    0.770972337729712  0.0000
  O1     O1        0.507484888403482    0.266760697569564    0.354937796092183  0.0000
  O1     O1        0.526132730285361    0.262429114560611    0.672468466294633  0.0000
  O1     O1        0.448027947558211    0.802428098843170    0.656926469257755  0.0000
  O1     O1        0.434996354111201    0.818303276187088    0.341930210087646  0.0000
  O3     O3        0.217079392246200    0.152510354011621    0.185458180083807  0.0000
  O3     O3        0.837459721053284    0.253357771147550    0.825210819249718  0.0000
  O3     O3        0.731808165854807    0.932981234129961    0.816756379480547  0.0000
  O3     O3        0.135044381453003    0.822647416532506    0.171741003038152  0.0000
  O1     O1        0.300159761333800    0.488893080455457    0.681432552887617  0.0000
  O1     O1        0.647964812883477    0.587780025662174    0.323996015204513  0.0000
  O1     O1        0.248204499705661    0.134900733804318    0.706803076030523  0.0000
  O1     O1        0.802802789301980    0.279872349021971    0.326974845621574  0.0000
  O1     O1        0.725723872936462    0.932094245366800    0.311584787565455  0.0000
  O1     O1        0.140339838051956    0.796423999616144    0.665073755012364  0.0000
  O1     O1        0.944726674060816    0.069810552591641    0.541413413334270  0.0000
  O3     O3        0.022960789432667    0.039459772516035    0.302083957911114  0.0000
  O3     O3        0.019232774200447    0.999310265390832    0.819348843157698  0.0000
  O2     O2        0.935982964974015    0.049878553373340    0.034842795775061  0.0000
