data_c00011.vasp
_audit_creation_method             Generated by GULP
_audit_author_name                 Salvador R. G. Balestra
_symmetry_space_group_name_H-M     'P 1             '
_symmetry_Int_Tables_number        1

loop_
_symmetry_equiv_pos_site_id
_symmetry_equiv_pos_as_xyz
_cell_length_a                        9.1083
_cell_length_b                        7.7718
_cell_length_c                       10.4097
_cell_angle_alpha                   90.6482
_cell_angle_beta                   105.7634
_cell_angle_gamma                   88.0083

loop_
_atom_site_label
_atom_site_type_symbol
_atom_site_fract_x
_atom_site_fract_y
_atom_site_fract_z
_atom_site_charge
  Ge     Ge        0.313819999999964    0.296860000000038    0.309830000000034  0.0000
  Ge     Ge        0.672900947394111    0.202787817747203    0.703702097739201  0.0000
  Ge     Ge        0.730211191789752    0.614922356982538    0.720930020242294  0.0000
  Ge     Ge        0.368915156904506    0.694381984213390    0.325876441699973  0.0000
  Ge     Ge        0.316181418891553    0.302755065775260    0.624660758630727  0.0000
  Ge     Ge        0.370810740141573    0.706120815474052    0.637112503801152  0.0000
  Ge     Ge        0.900668243928995    0.923801781568727    0.341710654612815  0.0000
  Ge     Ge        0.114468502999624    0.992622573543447    0.639804585396612  0.0000
  Ge     Ge        0.123945090225238    0.979568783471186    0.154981728925982  0.0000
  Ge     Ge        0.920218966028329    0.925179032710122    0.851549431897105  0.0000
  Si     Si        0.671720150431666    0.215685474728445    0.399516642030645  0.0000
  Si     Si        0.727431459491898    0.613107129101013    0.419227801433451  0.0000
  O1     O1        0.260319656553053    0.324011336019596    0.453822909647185  0.0000
  O3     O3        0.731771961077424    0.182301921911507    0.557744769427341  0.0000
  O3     O3        0.795575283384516    0.611698141576858    0.578213818531770  0.0000
  O1     O1        0.304209408222898    0.714488189292927    0.465359852651779  0.0000
  O1     O1        0.326900858250653    0.498191052479864    0.249690927906166  0.0000
  O1     O1        0.704144081289536    0.411335928197378    0.763270427446251  0.0000
  O3     O3        0.491546721228489    0.189481023902193    0.347737939471856  0.0000
  O1     O1        0.481054223259894    0.173803144027675    0.663548043547152  0.0000
  O1     O1        0.563057608947598    0.738655749644947    0.685428786314838  0.0000
  O3     O3        0.564680359522676    0.713823600362344    0.379162409876064  0.0000
  O1     O1        0.177055346589375    0.186296782511922    0.197889344287859  0.0000
  O1     O1        0.768149782080526    0.070773238731118    0.830538679156407  0.0000
  O1     O1        0.858945803570228    0.718411869462959    0.846698499312445  0.0000
  O1     O1        0.283886085861819    0.851273657030403    0.215096812954950  0.0000
  O1     O1        0.347342355184205    0.502179956357298    0.692953363902580  0.0000
  O2     O2        0.704296246256906    0.414540051765111    0.368783673913774  0.0000
  O1     O1        0.180566328610269    0.197398371635269    0.675514609600232  0.0000
  O3     O3        0.758235252677899    0.082909867587434    0.324723583264139  0.0000
  O3     O3        0.839151320935404    0.716901285966238    0.355527002793970  0.0000
  O1     O1        0.266137498286533    0.849863554892017    0.702560039507257  0.0000
  O1     O1        0.056572575466540    0.970483542182871    0.468227181012616  0.0000
  O1     O1        0.964903747109347    0.921639505308531    0.200610368116949  0.0000
  O1     O1        0.967448040318070    0.956535374102868    0.703452034580393  0.0000
  O1     O1        0.071113645171241    0.964948926866447    0.982842546338291  0.0000
