data_c00009.vasp
_audit_creation_method             Generated by GULP
_audit_author_name                 Salvador R. G. Balestra
_symmetry_space_group_name_H-M     'P 1             '
_symmetry_Int_Tables_number        1

loop_
_symmetry_equiv_pos_site_id
_symmetry_equiv_pos_as_xyz
_cell_length_a                        9.1415
_cell_length_b                        7.8367
_cell_length_c                       10.3333
_cell_angle_alpha                   89.9023
_cell_angle_beta                   106.2725
_cell_angle_gamma                   88.4802

loop_
_atom_site_label
_atom_site_type_symbol
_atom_site_fract_x
_atom_site_fract_y
_atom_site_fract_z
_atom_site_charge
  Ge     Ge        0.313819999999964    0.296860000000038    0.309830000000034  0.0000
  Ge     Ge        0.691335476419758    0.205836979981282    0.710736716703269  0.0000
  Ge     Ge        0.732940614439945    0.609005431631622    0.729431369656180  0.0000
  Ge     Ge        0.378972043699001    0.693916516086039    0.332334660612452  0.0000
  Ge     Ge        0.327566701926670    0.291521688757966    0.625129266266090  0.0000
  Ge     Ge        0.682152604292298    0.220008209833111    0.397444813447880  0.0000
  Ge     Ge        0.913164949030712    0.924415613967382    0.341871295197375  0.0000
  Ge     Ge        0.136637862920537    0.973171762950721    0.640783376842031  0.0000
  Ge     Ge        0.133620582289960    0.979764782675695    0.155421115642359  0.0000
  Ge     Ge        0.935286896706514    0.917684267193843    0.850043584590751  0.0000
  Si     Si        0.734285416474497    0.616470301820225    0.420769168564371  0.0000
  Si     Si        0.379465306745643    0.684477466667069    0.640916679181735  0.0000
  O1     O1        0.255494746953044    0.306525775140386    0.453443132966610  0.0000
  O1     O1        0.754231170032725    0.187833311143581    0.568271913071669  0.0000
  O3     O3        0.788204922075135    0.596065434458088    0.582000133902454  0.0000
  O3     O3        0.321449013236397    0.692302630022967    0.478396745460756  0.0000
  O1     O1        0.330990558690280    0.501214907217736    0.255634252589216  0.0000
  O1     O1        0.721470936899247    0.406353466465359    0.781267392347875  0.0000
  O1     O1        0.489690014912724    0.193384763601857    0.346629211577793  0.0000
  O1     O1        0.499030148670712    0.179431124485212    0.659379500007844  0.0000
  O3     O3        0.558515833653416    0.720223776752366    0.690807171134645  0.0000
  O3     O3        0.573506087944552    0.720944393124836    0.375679757806515  0.0000
  O1     O1        0.179723930846570    0.188490903510703    0.191293870075566  0.0000
  O1     O1        0.789117545248802    0.066458511561444    0.833306409956091  0.0000
  O1     O1        0.860874096720541    0.718562259492339    0.850106332775697  0.0000
  O1     O1        0.294470103810277    0.858745147095164    0.230186737604349  0.0000
  O3     O3        0.354795854146330    0.494166759841562    0.691391909138281  0.0000
  O3     O3        0.714648827921935    0.429226429030081    0.356706635884288  0.0000
  O1     O1        0.209387568525620    0.171835790235783    0.688400281112064  0.0000
  O1     O1        0.770816618449081    0.077660178632698    0.317176163842519  0.0000
  O3     O3        0.856414566105506    0.722288601670470    0.371673037541068  0.0000
  O3     O3        0.282881381480212    0.820577440421535    0.699229785900560  0.0000
  O1     O1        0.071780935500153    0.976063746171858    0.467744404192634  0.0000
  O1     O1        0.975693354234731    0.916669294210751    0.199377928541266  0.0000
  O1     O1        0.989164962353229    0.931643187832209    0.703081666736973  0.0000
  O1     O1        0.088452081468595    0.952811158448366    0.983153691291521  0.0000
