data_c00020.vasp
_audit_creation_method             Generated by GULP
_audit_author_name                 Salvador R. G. Balestra
_symmetry_space_group_name_H-M     'P 1             '
_symmetry_Int_Tables_number        1

loop_
_symmetry_equiv_pos_site_id
_symmetry_equiv_pos_as_xyz
_cell_length_a                        9.4105
_cell_length_b                        7.7937
_cell_length_c                       10.2052
_cell_angle_alpha                   94.4327
_cell_angle_beta                   108.5758
_cell_angle_gamma                   88.6494

loop_
_atom_site_label
_atom_site_type_symbol
_atom_site_fract_x
_atom_site_fract_y
_atom_site_fract_z
_atom_site_charge
  Ge     Ge        0.313819999999964    0.296860000000038    0.309830000000034  0.0000
  Ge     Ge        0.702084442266991    0.284559922553103    0.712682528024863  0.0000
  Ge     Ge        0.336066098943333    0.348395072476843    0.630703210666124  0.0000
  Ge     Ge        0.673261852343626    0.231314308002800    0.389196743663852  0.0000
  Ge     Ge        0.698462240317721    0.626503766663913    0.379792211230477  0.0000
  Ge     Ge        0.391324095271029    0.757683975600134    0.630438397337068  0.0000
  Ge     Ge        0.915939366830656    0.943283121404769    0.392138611703438  0.0000
  Ge     Ge        0.155113217643218    0.049663801634810    0.698241621942072  0.0000
  Ge     Ge        0.113260226588579    0.968690280849952    0.178216350334694  0.0000
  Ge     Ge        0.929596833605727    0.984730725471018    0.859481798988826  0.0000
  Si     Si        0.725803713090205    0.670653506037500    0.703417848041505  0.0000
  Si     Si        0.364557077466411    0.704383325052256    0.303778850577167  0.0000
  O1     O1        0.257826778097303    0.309808976529497    0.454130414647431  0.0000
  O1     O1        0.751408011564288    0.229266794598398    0.567229070490130  0.0000
  O3     O3        0.685769844487706    0.594453122305300    0.543507902217256  0.0000
  O3     O3        0.344511739116900    0.761339097897534    0.452574828532922  0.0000
  O3     O3        0.333148443642489    0.500984456347730    0.264264203551727  0.0000
  O3     O3        0.747605199790395    0.496740418667460    0.782236687974456  0.0000
  O1     O1        0.485296248838316    0.195450593097067    0.347577095938871  0.0000
  O1     O1        0.513078084700300    0.260592828882833    0.679706882461482  0.0000
  O3     O3        0.582588903631439    0.782667412726505    0.713119234853472  0.0000
  O3     O3        0.533361564445141    0.736522336358934    0.304573925062952  0.0000
  O1     O1        0.186483849742014    0.171057956881490    0.184442227579176  0.0000
  O1     O1        0.804147719843632    0.150140158042910    0.833939512558578  0.0000
  O3     O3        0.865887745106482    0.796757721502310    0.753597551566719  0.0000
  O3     O3        0.251884822588931    0.813556388838719    0.189488656219399  0.0000
  O1     O1        0.340605979114515    0.565260599006496    0.672901188749941  0.0000
  O1     O1        0.703177063937812    0.416906244136997    0.319417189235946  0.0000
  O1     O1        0.217884466665082    0.255461532823759    0.701824392751848  0.0000
  O1     O1        0.765298137011883    0.071851294712440    0.322528222648608  0.0000
  O1     O1        0.849211633413641    0.733654177258333    0.373214687752993  0.0000
  O1     O1        0.304696372696412    0.921754249408605    0.693354272505353  0.0000
  O1     O1        0.994155581763462    0.996848526178713    0.565948456106363  0.0000
  O1     O1        0.053514066029101    0.952373142608949    0.319103963199057  0.0000
  O1     O1        0.098808554092980    0.034535690857761    0.841367784789508  0.0000
  O1     O1        0.968395901164286    0.933745712849137    0.028950282418738  0.0000
