data_c00008.vasp
_audit_creation_method             Generated by GULP
_audit_author_name                 Salvador R. G. Balestra
_symmetry_space_group_name_H-M     'P 1             '
_symmetry_Int_Tables_number        1

loop_
_symmetry_equiv_pos_site_id
_symmetry_equiv_pos_as_xyz
_cell_length_a                        9.1177
_cell_length_b                        7.7925
_cell_length_c                       10.2589
_cell_angle_alpha                   89.2487
_cell_angle_beta                   104.9787
_cell_angle_gamma                   91.5743

loop_
_atom_site_label
_atom_site_type_symbol
_atom_site_fract_x
_atom_site_fract_y
_atom_site_fract_z
_atom_site_charge
  Ge     Ge        0.313819999999964    0.296860000000038    0.309830000000034  0.0000
  Ge     Ge        0.668387001744078    0.375028918577792    0.718639450671691  0.0000
  Ge     Ge        0.614087618963349    0.777343194453504    0.703187754858004  0.0000
  Ge     Ge        0.261969660007045    0.699271177543819    0.300661450226701  0.0000
  Ge     Ge        0.306969128213667    0.295454342490790    0.623097894932753  0.0000
  Ge     Ge        0.677014721512258    0.379308937510373    0.403632844552752  0.0000
  Ge     Ge        0.620614329458587    0.785394781114134    0.384936537900557  0.0000
  Ge     Ge        0.061520707831472    0.998787885363896    0.624562592005451  0.0000
  Ge     Ge        0.070122045239602    0.012693142762606    0.143463269979492  0.0000
  Ge     Ge        0.860348346197018    0.057036948491856    0.839029018956868  0.0000
  Si     Si        0.264188944909036    0.690347560394442    0.614368432566989  0.0000
  Si     Si        0.857671466857112    0.071963084999805    0.331108172597657  0.0000
  O1     O1        0.247177384247866    0.271171538379125    0.451015807141413  0.0000
  O1     O1        0.732593301387924    0.396639108528813    0.575498511131837  0.0000
  O1     O1        0.674648529709159    0.794731788423647    0.557666805606368  0.0000
  O3     O3        0.221798872346175    0.659521939394798    0.453962008928874  0.0000
  O1     O1        0.281971438111768    0.499578206966963    0.240981369444906  0.0000
  O1     O1        0.646901953653851    0.575252535768698    0.773504173749750  0.0000
  O1     O1        0.506321941569545    0.268709768910866    0.356649467207996  0.0000
  O1     O1        0.497837056993615    0.260134882238673    0.675572602685557  0.0000
  O3     O3        0.419405077307733    0.804805697884370    0.655670977494745  0.0000
  O1     O1        0.429187955668105    0.816900126573623    0.325962711303310  0.0000
  O1     O1        0.223469612439057    0.148989573429375    0.192480827461605  0.0000
  O1     O1        0.797169284842684    0.262053393422220    0.838247402942606  0.0000
  O1     O1        0.705296012673462    0.919108346579676    0.823453420211453  0.0000
  O1     O1        0.118933338245892    0.806892816254071    0.194089615669309  0.0000
  O3     O3        0.284709788384674    0.501702076957807    0.679342371151176  0.0000
  O1     O1        0.658869848629984    0.583119038097831    0.336792379743881  0.0000
  O1     O1        0.198403302797487    0.153517124883255    0.688356752925616  0.0000
  O3     O3        0.813962989520066    0.265034781199728    0.355801145420066  0.0000
  O3     O3        0.713742857321350    0.943357642676665    0.316178666271462  0.0000
  O3     O3        0.136936826122756    0.794959377794111    0.658433303694552  0.0000
  O3     O3        0.998996137723093    0.009646277654094    0.449804738346548  0.0000
  O3     O3        0.912550307824663    0.074143587149164    0.194479181555944  0.0000
  O1     O1        0.912208966400852    0.021121812986771    0.690798090508576  0.0000
  O1     O1        0.011714605238041    0.015250186131003    0.969895133378053  0.0000
