data_c00021.vasp
_audit_creation_method             Generated by GULP
_audit_author_name                 Salvador R. G. Balestra
_symmetry_space_group_name_H-M     'P 1             '
_symmetry_Int_Tables_number        1

loop_
_symmetry_equiv_pos_site_id
_symmetry_equiv_pos_as_xyz
_cell_length_a                        9.3448
_cell_length_b                        7.8030
_cell_length_c                       10.1203
_cell_angle_alpha                   82.0825
_cell_angle_beta                   109.0082
_cell_angle_gamma                   92.1331

loop_
_atom_site_label
_atom_site_type_symbol
_atom_site_fract_x
_atom_site_fract_y
_atom_site_fract_z
_atom_site_charge
  Ge     Ge        0.313819999999964    0.296860000000038    0.309830000000034  0.0000
  Ge     Ge        0.653845422264867    0.673234547514443    0.740014031087927  0.0000
  Ge     Ge        0.342562096354771    0.206060744070947    0.637559852517482  0.0000
  Ge     Ge        0.656438945949826    0.380483317795834    0.390097191788338  0.0000
  Ge     Ge        0.619327958116600    0.769187794011198    0.401468280003340  0.0000
  Ge     Ge        0.291325570063998    0.611183241629282    0.649266279864762  0.0000
  Ge     Ge        0.863540221354359    0.056698144510367    0.403097684529766  0.0000
  Ge     Ge        0.109269214475708    0.905980239731604    0.709653448788826  0.0000
  Ge     Ge        0.063037916758137    0.026942270270047    0.187544336939900  0.0000
  Ge     Ge        0.882307491512439    0.972211083101305    0.869992607081539  0.0000
  Si     Si        0.676583598321939    0.294643878113147    0.712422675450002  0.0000
  Si     Si        0.266928118291102    0.698943208978255    0.328400995003577  0.0000
  O1     O1        0.324635743101781    0.174177056944042    0.468802174195272  0.0000
  O3     O3        0.607598151595895    0.367493107181574    0.544952216393088  0.0000
  O1     O1        0.654695462554423    0.774608041693332    0.578464859442475  0.0000
  O3     O3        0.267554031847240    0.724816097120492    0.483514765435360  0.0000
  O3     O3        0.240598444550511    0.499103593121998    0.306820869308369  0.0000
  O3     O3        0.735177690059802    0.465620582283154    0.784759411930348  0.0000
  O1     O1        0.485195864449228    0.319231370924211    0.279938840227465  0.0000
  O3     O3        0.530520901814393    0.208508971299603    0.746329492412677  0.0000
  O1     O1        0.475155109380860    0.644230895845371    0.749851469072848  0.0000
  O3     O3        0.427626619463993    0.760911525681085    0.313074815946156  0.0000
  O1     O1        0.195973959458864    0.183883339166172    0.183950760471200  0.0000
  O3     O3        0.805035333478814    0.152300413779113    0.745312104569990  0.0000
  O1     O1        0.760678760036340    0.801258264051982    0.858958964567413  0.0000
  O3     O3        0.135995402371371    0.818360335681888    0.215726648005692  0.0000
  O1     O1        0.255739288786704    0.395997223364028    0.639527241224611  0.0000
  O1     O1        0.697930496791133    0.594823469249865    0.362558819654144  0.0000
  O1     O1        0.260322060583395    0.036299234966728    0.710809167591760  0.0000
  O1     O1        0.810592381231289    0.267876293064109    0.398450238150818  0.0000
  O1     O1        0.697238770027826    0.949575374770655    0.335854024141634  0.0000
  O1     O1        0.166223022148437    0.697608668428407    0.713336039321195  0.0000
  O1     O1        0.945909789642529    0.956628545282446    0.571458081607739  0.0000
  O1     O1        0.993421119193953    0.064523987390522    0.318775424836051  0.0000
  O1     O1        0.050538011932710    0.918478963545541    0.852573614809130  0.0000
  O1     O1        0.918197232390986    0.040746243982300    0.031729386635776  0.0000
