data_c00005.vasp
_audit_creation_method             Generated by GULP
_audit_author_name                 Salvador R. G. Balestra
_symmetry_space_group_name_H-M     'P 1             '
_symmetry_Int_Tables_number        1

loop_
_symmetry_equiv_pos_site_id
_symmetry_equiv_pos_as_xyz
_cell_length_a                        9.1310
_cell_length_b                        7.7956
_cell_length_c                       10.2184
_cell_angle_alpha                   89.7494
_cell_angle_beta                   106.3314
_cell_angle_gamma                   91.2241

loop_
_atom_site_label
_atom_site_type_symbol
_atom_site_fract_x
_atom_site_fract_y
_atom_site_fract_z
_atom_site_charge
  Ge     Ge        0.313819999999964    0.296860000000038    0.309830000000034  0.0000
  Ge     Ge        0.684589693998850    0.384444303264024    0.710310364353298  0.0000
  Ge     Ge        0.630021898874495    0.784201041410125    0.696831531811244  0.0000
  Ge     Ge        0.263717074687079    0.707330442223089    0.293820577399202  0.0000
  Ge     Ge        0.318433997968123    0.310672861899637    0.626985678956988  0.0000
  Ge     Ge        0.671266031242507    0.391577385917775    0.388628066769720  0.0000
  Ge     Ge        0.620922554555352    0.794585090785318    0.377672216450043  0.0000
  Ge     Ge        0.872551432202235    0.080622164796953    0.371227150503282  0.0000
  Ge     Ge        0.082954351514798    0.018891778972343    0.680331718683651  0.0000
  Ge     Ge        0.070828103110143    0.017308696828225    0.159985930564191  0.0000
  Si     Si        0.270465865431483    0.711990297182402    0.606003882979891  0.0000
  Si     Si        0.863634650176216    0.068222176581352    0.863786982270180  0.0000
  O1     O1        0.250921946592438    0.277965209849256    0.453908547959749  0.0000
  O1     O1        0.733615204290612    0.418407071921185    0.563020999270076  0.0000
  O1     O1        0.690059104378711    0.802360133728497    0.553112245933970  0.0000
  O3     O3        0.207209745458572    0.696502050892170    0.442719872787646  0.0000
  O1     O1        0.288163340758854    0.504457491052989    0.247269644367708  0.0000
  O1     O1        0.672089054225381    0.587381317740186    0.772724475321733  0.0000
  O1     O1        0.506551716143343    0.265719215963525    0.357086451596778  0.0000
  O1     O1        0.511156243036071    0.278723522762501    0.678889438632321  0.0000
  O3     O3        0.434056455202677    0.810931056606910    0.646797453015071  0.0000
  O1     O1        0.428902784473355    0.831662787196948    0.329620446622579  0.0000
  O1     O1        0.219057588129335    0.163519576517475    0.179838138228172  0.0000
  O3     O3        0.823554070133484    0.263211155981767    0.819380543278772  0.0000
  O3     O3        0.715793017965969    0.946905673347952    0.807244629756800  0.0000
  O1     O1        0.132994096107027    0.811268359151219    0.165880034969016  0.0000
  O3     O3        0.290364230915150    0.521706517421225    0.668031236898025  0.0000
  O1     O1        0.639178119502852    0.590254779906474    0.318720077467042  0.0000
  O1     O1        0.225510299503479    0.172754273226954    0.708421082401323  0.0000
  O1     O1        0.801341450444056    0.283131308207606    0.331364388476005  0.0000
  O1     O1        0.724867678798911    0.934237571311818    0.310007093683311  0.0000
  O3     O3        0.152080215917128    0.817870997516492    0.661411847186403  0.0000
  O1     O1        0.931507815254743    0.069991902431394    0.546907724618389  0.0000
  O1     O1        0.021861501964046    0.043953465298864    0.310260991982186  0.0000
  O3     O3        0.010888891781744    0.005626549484778    0.820757232131090  0.0000
  O3     O3        0.912888424856565    0.058665848008321    0.027872948109036  0.0000
