data_c00017.vasp
_audit_creation_method             Generated by GULP
_audit_author_name                 Salvador R. G. Balestra
_symmetry_space_group_name_H-M     'P 1             '
_symmetry_Int_Tables_number        1

loop_
_symmetry_equiv_pos_site_id
_symmetry_equiv_pos_as_xyz
_cell_length_a                        9.1523
_cell_length_b                        7.8675
_cell_length_c                       10.3888
_cell_angle_alpha                   89.1199
_cell_angle_beta                   107.4417
_cell_angle_gamma                   88.5088

loop_
_atom_site_label
_atom_site_type_symbol
_atom_site_fract_x
_atom_site_fract_y
_atom_site_fract_z
_atom_site_charge
  Ge     Ge        0.313819999999964    0.296860000000038    0.309830000000034  0.0000
  Ge     Ge        0.697262734637215    0.198327053559456    0.707118282979118  0.0000
  Ge     Ge        0.745041049849098    0.606430839455954    0.723873886617987  0.0000
  Ge     Ge        0.333549929404055    0.283018900837616    0.626038380536613  0.0000
  Ge     Ge        0.686076629638702    0.222508329993015    0.393512238815047  0.0000
  Ge     Ge        0.384132679244588    0.683902915682388    0.639407706048941  0.0000
  Ge     Ge        0.910135538662776    0.926240811127718    0.336300942044024  0.0000
  Ge     Ge        0.132950525259282    0.973326862166616    0.641840587792338  0.0000
  Ge     Ge        0.140501513920670    0.971725486567784    0.159981439112603  0.0000
  Ge     Ge        0.941359609387927    0.911735528492672    0.853947107824995  0.0000
  Si     Si        0.370441110448360    0.683133988163132    0.332324150985479  0.0000
  Si     Si        0.730509149156256    0.615395773903788    0.416572090156801  0.0000
  O1     O1        0.259562387553970    0.299992439282536    0.452898859887893  0.0000
  O1     O1        0.756523297207006    0.182778204162242    0.564486500402834  0.0000
  O3     O3        0.801760702556658    0.606837914272938    0.577917255797252  0.0000
  O3     O3        0.313220415890287    0.690811590205678    0.463883958146932  0.0000
  O3     O3        0.319999024029633    0.507283325353051    0.256641662425523  0.0000
  O1     O1        0.725941372357472    0.402235165370490    0.768539075725064  0.0000
  O1     O1        0.492264027584431    0.201566056842410    0.340593231343122  0.0000
  O1     O1        0.504282715059284    0.167359223724057    0.659275899288049  0.0000
  O1     O1        0.575173562631429    0.723089290142046    0.692417710387968  0.0000
  O2     O2        0.555588502784944    0.689299316182291    0.384922595435431  0.0000
  O1     O1        0.185178506819391    0.180146615777279    0.192731808349525  0.0000
  O1     O1        0.794652258071238    0.061231359025362    0.834670309521648  0.0000
  O1     O1        0.875929425615572    0.708904015226900    0.849475731330509  0.0000
  O3     O3        0.300731180800549    0.843115828501691    0.235857982103506  0.0000
  O1     O1        0.362363409189887    0.479597210477413    0.693314748747815  0.0000
  O3     O3        0.727882806605885    0.428991921293289    0.357381052857686  0.0000
  O1     O1        0.209380707817426    0.169774435388384    0.685037975392806  0.0000
  O1     O1        0.772284364577524    0.085217303494282    0.311092353591909  0.0000
  O3     O3        0.830207465222388    0.732986772727756    0.352279986160486  0.0000
  O1     O1        0.279478146043032    0.822487003512465    0.701798471698182  0.0000
  O1     O1        0.067846295367788    0.965441523786391    0.468368378706936  0.0000
  O1     O1        0.978459197685530    0.916478786845821    0.198919741568466  0.0000
  O1     O1        0.987149231706335    0.939194460919239    0.705249843782506  0.0000
  O1     O1        0.096268436916169    0.944919952363177    0.988310061864992  0.0000
