data_c00018.vasp
_audit_creation_method             Generated by GULP
_audit_author_name                 Salvador R. G. Balestra
_symmetry_space_group_name_H-M     'P 1             '
_symmetry_Int_Tables_number        1

loop_
_symmetry_equiv_pos_site_id
_symmetry_equiv_pos_as_xyz
_cell_length_a                        9.2100
_cell_length_b                        7.8762
_cell_length_c                       10.3111
_cell_angle_alpha                   89.8591
_cell_angle_beta                   107.1131
_cell_angle_gamma                   87.9248

loop_
_atom_site_label
_atom_site_type_symbol
_atom_site_fract_x
_atom_site_fract_y
_atom_site_fract_z
_atom_site_charge
  Ge     Ge        0.313819999999964    0.296860000000038    0.309830000000034  0.0000
  Ge     Ge        0.677581882590107    0.214870565893821    0.708507677684898  0.0000
  Ge     Ge        0.737719476635153    0.613344899071047    0.726754441638040  0.0000
  Ge     Ge        0.313662213020120    0.293363001480238    0.623416962472587  0.0000
  Ge     Ge        0.717226952882445    0.617903302939363    0.408540860892024  0.0000
  Ge     Ge        0.373317367226376    0.693743030662612    0.636879940034717  0.0000
  Ge     Ge        0.907948924658032    0.935028727927089    0.396283552760876  0.0000
  Ge     Ge        0.133584520361495    0.983837509317911    0.696744877907530  0.0000
  Ge     Ge        0.120899806975395    0.980565392221746    0.197761881322761  0.0000
  Ge     Ge        0.924340323809185    0.920968678005923    0.887956252922896  0.0000
  Si     Si        0.357840030746399    0.687444765084047    0.325624733699342  0.0000
  Si     Si        0.673134193112897    0.228975427815662    0.399196631160822  0.0000
  O1     O1        0.249186029825692    0.299415823364206    0.449187162601096  0.0000
  O3     O3        0.735414151524229    0.219858665893057    0.562766840747630  0.0000
  O1     O1        0.792355426608635    0.608982747636234    0.581308238977154  0.0000
  O3     O3        0.303039213207950    0.698003375528583    0.460615356927330  0.0000
  O3     O3        0.323641046528431    0.502845259803573    0.257365885937957  0.0000
  O1     O1        0.718087629271827    0.411516967598460    0.780255104048269  0.0000
  O3     O3        0.494244335388857    0.200055527926515    0.355655324465129  0.0000
  O1     O1        0.487182858479242    0.184453169169714    0.670456726156886  0.0000
  O1     O1        0.564217351395093    0.722208403672164    0.689755790616615  0.0000
  O3     O3        0.537126437580626    0.714537050576554    0.370699911724313  0.0000
  O1     O1        0.196800678069589    0.175444208440462    0.188980300236669  0.0000
  O1     O1        0.771799302853098    0.055684822123156    0.814354896259637  0.0000
  O1     O1        0.872016179241705    0.716345558478117    0.848576909599323  0.0000
  O3     O3        0.266419473065985    0.826991980319579    0.217202706275821  0.0000
  O1     O1        0.335703992366839    0.494920280639102    0.686459192433654  0.0000
  O3     O3        0.703250263992663    0.414220602775578    0.346253004526689  0.0000
  O1     O1        0.183873468207995    0.188812422140320    0.679655196953647  0.0000
  O3     O3        0.762743553838824    0.089067552226842    0.338097866405956  0.0000
  O1     O1        0.829076135442992    0.741803468588461    0.344677935608437  0.0000
  O1     O1        0.286186773486948    0.848827168726721    0.704506375390793  0.0000
  O1     O1        0.974496663203839    0.930292116923597    0.570624102321047  0.0000
  O1     O1        0.058380131535435    0.975855099116045    0.339710312674780  0.0000
  O1     O1        0.083609636609107    0.970387161045000    0.844332865378853  0.0000
  O1     O1        0.970297261323194    0.942955690869109    0.061523583757637  0.0000
