data_c00004.vasp
_audit_creation_method             Generated by GULP
_audit_author_name                 Salvador R. G. Balestra
_symmetry_space_group_name_H-M     'P 1             '
_symmetry_Int_Tables_number        1

loop_
_symmetry_equiv_pos_site_id
_symmetry_equiv_pos_as_xyz
_cell_length_a                       17.0223
_cell_length_b                        7.6012
_cell_length_c                       10.2855
_cell_angle_alpha                   90.1227
_cell_angle_beta                    89.9772
_cell_angle_gamma                   90.2820

loop_
_atom_site_label
_atom_site_type_symbol
_atom_site_fract_x
_atom_site_fract_y
_atom_site_fract_z
_atom_site_charge
  Ge     Ge        0.660660000000007    0.294089999999983    0.017439999999965  0.0000
  Si     Si        0.039266539813887    0.015989242877117    0.358683646320935  0.0000
  Si     Si        0.439605419926876    0.005793713474549    0.362262500831136  0.0000
  Si     Si        0.942933748567762    0.021038035187837    0.621822480151975  0.0000
  Si     Si        0.541936132430913    0.005641043249915    0.618570215595988  0.0000
  Si     Si        0.549780972281379    0.008150150422959    0.114110849562660  0.0000
  Si     Si        0.936876545138661    0.022449120486473    0.106367192032398  0.0000
  Si     Si        0.440363752716272    0.015824450669558    0.873221396174459  0.0000
  Si     Si        0.051453127863399    0.011653868263171    0.870476647926128  0.0000
  Si     Si        0.145945137357766    0.319039622389856    0.268041961764388  0.0000
  Si     Si        0.334474427305965    0.702937069060646    0.278012826464457  0.0000
  Si     Si        0.837843207780074    0.328263706589955    0.707081868288604  0.0000
  Si     Si        0.645824706952773    0.702094123575702    0.709393803339306  0.0000
  Si     Si        0.826679938578604    0.731125571466876    0.706060811482661  0.0000
  Si     Si        0.658157800146371    0.294297071987752    0.708812942217545  0.0000
  Si     Si        0.153648147001531    0.723859833929778    0.268439530109474  0.0000
  Si     Si        0.327363014497154    0.298775303288247    0.273862154876372  0.0000
  Si     Si        0.825842647519629    0.734142037965129    0.009004573700470  0.0000
  Si     Si        0.329667194677247    0.302925021755146    0.970808690923513  0.0000
  Si     Si        0.160641693415779    0.724771238390703    0.965166101013374  0.0000
  Si     Si        0.341967431628649    0.702962040809439    0.975013645198158  0.0000
  Si     Si        0.147905995609044    0.324902611690028    0.965687434862355  0.0000
  Si     Si        0.643218882195771    0.697190426182648    0.010442716233559  0.0000
  Si     Si        0.843668872829478    0.338954757453694    0.012860300957307  0.0000
  O2     O2        0.087762254743357    0.198237389526903    0.351480590065471  0.0000
  O2     O2        0.390171920769148    0.824188535854782    0.366822053078066  0.0000
  O2     O2        0.898797110307183    0.208117706586548    0.628390777495611  0.0000
  O2     O2        0.587051293522975    0.819039136138158    0.623829965499261  0.0000
  O2     O2        0.878227442228998    0.865320516430637    0.621486268448859  0.0000
  O2     O2        0.604610910255008    0.165146031401760    0.622137116403543  0.0000
  O2     O2        0.099264062377558    0.852980414864070    0.351410363150511  0.0000
  O2     O2        0.379270534599942    0.168973505484550    0.360665663916231  0.0000
  O2     O2        0.993590247542309    0.009552851778379    0.492848428761455  0.0000
  O2     O2        0.495327815692786    0.018460230707680    0.485213290559763  0.0000
  O2     O2        0.974855494969764    0.002615054146296    0.246368685575237  0.0000
  O2     O2        0.493239607528887    0.010834769881429    0.235655369985119  0.0000
  O2     O2        0.002370685090694    0.997270166963479    0.740262295973341  0.0000
  O2     O2        0.478545994014761    0.021920645331999    0.732505896458778  0.0000
  O3     O3        0.617220341251396    0.153002526754254    0.125549913699653  0.0000
  O2     O2        0.864897513324468    0.884321522361247    0.097137827885260  0.0000
  O2     O2        0.374673304738061    0.166952636198851    0.879400269085064  0.0000
  O2     O2        0.117440076621776    0.860436520476687    0.870982107742301  0.0000
  O2     O2        0.401618480470324    0.824006846708471    0.894634794696105  0.0000
  O2     O2        0.092254758121088    0.203692111270694    0.877088458243316  0.0000
  O2     O2        0.588780458714997    0.816522949797374    0.101213768513171  0.0000
  O2     O2        0.906824275878205    0.221790398705983    0.089007401243322  0.0000
  O2     O2        0.504422281538813    0.060531885950967    0.982236165135981  0.0000
  O2     O2        0.997889684194970    0.973428570762792    0.994640893840041  0.0000
  O2     O2        0.127579006085366    0.523135882979229    0.296171395185294  0.0000
  O2     O2        0.352476752348190    0.498938773239284    0.306404669599120  0.0000
  O2     O2        0.856211056840258    0.532956830919907    0.678548323255892  0.0000
  O2     O2        0.628569421681700    0.494868904025925    0.690428721888315  0.0000
  O2     O2        0.235423220880458    0.273363188353963    0.306339365519197  0.0000
  O2     O2        0.244203518478046    0.747820653300824    0.310769512607274  0.0000
  O2     O2        0.749017015846263    0.281930549644940    0.663406101118722  0.0000
  O2     O2        0.735157358820308    0.746393950027863    0.667386742445690  0.0000
  O2     O2        0.131767838911904    0.277714630489209    0.116064609495206  0.0000
  O2     O2        0.352227963198938    0.745836405385461    0.127379127132399  0.0000
  O2     O2        0.846746204723215    0.290176731697032    0.860080889031273  0.0000
  O2     O2        0.631952992331053    0.753113212002573    0.859887218449093  0.0000
  O2     O2        0.835938197692187    0.782112171925258    0.857422385280310  0.0000
  O3     O3        0.652458009995677    0.232281475438706    0.856792187996249  0.0000
  O2     O2        0.145636508637116    0.770688983208295    0.116268779914100  0.0000
  O2     O2        0.341629754502486    0.254951206354985    0.122182509662241  0.0000
  O3     O3        0.618517367199709    0.498897227772733    0.033357187731160  0.0000
  O2     O2        0.865409807855853    0.544467223754961    0.035400847169149  0.0000
  O2     O2        0.362328634845889    0.499782369112753    0.945646312111471  0.0000
  O2     O2        0.128688616874514    0.528151674974317    0.936446092020025  0.0000
  O3     O3        0.757506298272090    0.300550152627333    0.064614547418943  0.0000
  O2     O2        0.734563441351940    0.724288349079056    0.047165956334212  0.0000
  O2     O2        0.238529233519577    0.288874101043850    0.932951794107588  0.0000
  O2     O2        0.252752334957857    0.740128313276125    0.933045004293137  0.0000
