data_c00002.vasp
_audit_creation_method             Generated by GULP
_audit_author_name                 Salvador R. G. Balestra
_symmetry_space_group_name_H-M     'P 1             '
_symmetry_Int_Tables_number        1

loop_
_symmetry_equiv_pos_site_id
_symmetry_equiv_pos_as_xyz
_cell_length_a                       16.9881
_cell_length_b                        7.5695
_cell_length_c                       10.3362
_cell_angle_alpha                   89.8483
_cell_angle_beta                    90.2564
_cell_angle_gamma                   90.2461

loop_
_atom_site_label
_atom_site_type_symbol
_atom_site_fract_x
_atom_site_fract_y
_atom_site_fract_z
_atom_site_charge
  Ge     Ge        0.556730000000016    0.000000000000000    0.122129999999970  0.0000
  Si     Si        0.046873719667645    0.014986788998588    0.375083006344202  0.0000
  Si     Si        0.447618323087905    0.004522580436147    0.377072458409219  0.0000
  Si     Si        0.949443956330804    0.018488414208982    0.635302057105053  0.0000
  Si     Si        0.546568701839541    0.999699946768785    0.635436543773031  0.0000
  Si     Si        0.944661330367779    0.015977156671529    0.121847286529879  0.0000
  Si     Si        0.443135885514525    0.010247773893759    0.881717697564738  0.0000
  Si     Si        0.056784379862421    0.012628296680943    0.885140726790754  0.0000
  Si     Si        0.150489613278652    0.321672409519743    0.284986521597788  0.0000
  Si     Si        0.344564788013917    0.696834450147767    0.290717804631967  0.0000
  Si     Si        0.846495645180088    0.325408492198915    0.721543827917372  0.0000
  Si     Si        0.650679317372892    0.694576384656683    0.730245974770905  0.0000
  Si     Si        0.831586376190936    0.730618714282578    0.723598307475874  0.0000
  Si     Si        0.665754324617338    0.286331139555777    0.729782679807915  0.0000
  Si     Si        0.163239259462999    0.727818201858806    0.284517815564947  0.0000
  Si     Si        0.332436343430349    0.290759408065604    0.289323924097879  0.0000
  Si     Si        0.673316264937125    0.282013376673972    0.030066771398752  0.0000
  Si     Si        0.832559651607255    0.730129475073140    0.025608308675340  0.0000
  Si     Si        0.332800280801930    0.293237427511370    0.988082081519060  0.0000
  Si     Si        0.167382509383723    0.728115507578670    0.982776103060540  0.0000
  Si     Si        0.349205048440821    0.694400555269382    0.989709715051712  0.0000
  Si     Si        0.150415627700180    0.327601728143023    0.984712026466182  0.0000
  Si     Si        0.651069599745053    0.680765760260271    0.030264568479490  0.0000
  Si     Si        0.854107346907022    0.333838046513418    0.022928489524678  0.0000
  O2     O2        0.091703746846393    0.203292876968020    0.369895679192705  0.0000
  O2     O2        0.403756242655368    0.814449996470381    0.376257839560350  0.0000
  O2     O2        0.906126633206154    0.208045972149985    0.637944156511558  0.0000
  O2     O2        0.589561421110181    0.810346046827703    0.647303515308522  0.0000
  O2     O2        0.883034906445615    0.865698417945029    0.639356971866241  0.0000
  O2     O2        0.611289263707844    0.155183224697329    0.647091021975382  0.0000
  O2     O2        0.111280499566059    0.859287788858164    0.369229450459338  0.0000
  O2     O2        0.381793139642804    0.158771619467177    0.379729985375455  0.0000
  O2     O2        0.998998098169422    0.000571122222693    0.506153056133604  0.0000
  O2     O2        0.506330441230925    0.014892589734635    0.496786190570065  0.0000
  O2     O2        0.985129988440772    0.994194300714379    0.259391513323604  0.0000
  O3     O3        0.499453650989848    0.036286067829865    0.251976010234652  0.0000
  O2     O2        0.010108390856518    0.995991682507255    0.752682945260904  0.0000
  O2     O2        0.476619479437368    0.018350901124548    0.737832578237231  0.0000
  O3     O3        0.636685680581152    0.142222159700061    0.125377683783493  0.0000
  O2     O2        0.872668656066578    0.877383715602680    0.114828920777348  0.0000
  O2     O2        0.373769139863120    0.153906562375319    0.894988656609681  0.0000
  O2     O2        0.125874337924263    0.867144086107585    0.888215267335924  0.0000
  O2     O2        0.409542198043807    0.813176326181300    0.908818444246905  0.0000
  O2     O2        0.093936997688355    0.208920977915436    0.895521213533772  0.0000
  O3     O3        0.591925954488574    0.786447182460856    0.119115262062288  0.0000
  O2     O2        0.913908717479482    0.216352554861310    0.106675935865311  0.0000
  O3     O3        0.509756627432112    0.061081978712152    0.982094968554219  0.0000
  O2     O2        0.002688016603438    0.966669270689563    0.006596859554091  0.0000
  O2     O2        0.135555848454733    0.527589451169371    0.313506317971667  0.0000
  O2     O2        0.359629250144287    0.490976244221565    0.319741754671170  0.0000
  O2     O2        0.860164943532372    0.532224298260944    0.692018392334111  0.0000
  O2     O2        0.636392035314659    0.486660276863312    0.705675953244075  0.0000
  O2     O2        0.240059281822969    0.270250419229559    0.319973530605077  0.0000
  O2     O2        0.254893051443497    0.748429807853453    0.323170939636780  0.0000
  O2     O2        0.756782063535032    0.271235145570938    0.686532695791757  0.0000
  O2     O2        0.739285874677602    0.747866123499453    0.688619081413633  0.0000
  O2     O2        0.133211736426277    0.281351053004685    0.134343912584472  0.0000
  O2     O2        0.363265762141238    0.738703678147146    0.140682289759778  0.0000
  O2     O2        0.865269556829301    0.287465397449405    0.872002475265310  0.0000
  O2     O2        0.636192382455520    0.738181846253471    0.880901675369671  0.0000
  O2     O2        0.842601022159529    0.777531234222195    0.874483049955527  0.0000
  O2     O2        0.660309324044206    0.230175103209606    0.879645528031177  0.0000
  O2     O2        0.153483634622701    0.775232889429123    0.133115131275843  0.0000
  O2     O2        0.347023298893455    0.244093785467562    0.138697277458858  0.0000
  O2     O2        0.634469972757062    0.474089451447225    0.051348547710561  0.0000
  O2     O2        0.872574632158687    0.539354163492803    0.050954570328647  0.0000
  O2     O2        0.367318831078910    0.489351370860216    0.961733285239098  0.0000
  O2     O2        0.133047042412280    0.532575091857671    0.954862145819193  0.0000
  O2     O2        0.765509260018997    0.290795961277845    0.063364671364372  0.0000
  O2     O2        0.741445711058546    0.725736831658250    0.064897528481238  0.0000
  O2     O2        0.240830416942839    0.286360348985851    0.954283110850558  0.0000
  O2     O2        0.259734512726690    0.736900989256044    0.951047302030302  0.0000
